144203647


 19 19  0  0  0  0  0  0  0  0999 V2000
   98.1980   97.7635  -27.2163 C   0  0  0  0  0  0  0  0  0  0  0  0
   99.4424   98.2622  -26.7972 C   0  0  0  0  0  0  0  0  0  0  0  0
  100.6237   97.8529  -27.4205 C   0  0  0  0  0  0  0  0  0  0  0  0
  100.5860   96.9324  -28.4772 C   0  0  0  0  0  0  0  0  0  0  0  0
   99.3482   96.4272  -28.9001 C   0  0  0  0  0  0  0  0  0  0  0  0
   98.1647   96.8364  -28.2790 C   0  0  0  0  0  0  0  0  0  0  0  0
   96.9584   98.2520  -26.4909 C   0  0  0  0  0  0  0  0  0  0  0  0
   95.6169   97.8492  -27.1299 C   0  0  0  0  0  0  0  0  0  0  0  0
   94.9935   98.9943  -27.9395 C   0  0  0  0  0  0  0  0  0  0  0  0
   95.9908   98.7901  -30.2243 O   0  0  0  0  0  0  0  0  0  0  0  0
   94.8857   98.6523  -29.3941 C   0  0  0  0  0  0  0  0  0  0  0  0
   93.8035   98.2124  -29.8640 O   0  0  0  0  0  0  0  0  0  0  0  0
  101.8050   96.5084  -29.1183 N   0  0  0  0  0  0  0  0  0  0  0  0
  103.0969   97.0280  -28.6462 C   0  0  0  0  0  0  0  0  0  0  0  0
  103.6374   96.1597  -27.5127 C   0  0  0  0  0  0  0  0  0  0  0  0
  105.1775   95.4066  -27.9967 Cl  0  0  0  0  0  0  0  0  0  0  0  0
  101.7500   95.5659  -30.2468 C   0  0  0  0  0  0  0  0  0  0  0  0
  101.9962   94.1321  -29.7765 C   0  0  0  0  0  0  0  0  0  0  0  0
  100.6066   93.0861  -30.1708 Cl  0  0  0  0  0  0  0  0  0  0  0  0
 10 11  1  0  0  0
 11 12  2  0  0  0
 11  9  1  0  0  0
  9  8  1  0  0  0
  8  7  1  0  0  0
  7  1  1  0  0  0
  1  2  2  0  0  0
  2  3  1  0  0  0
  3  4  2  0  0  0
  4  5  1  0  0  0
  5  6  2  0  0  0
  4 13  1  0  0  0
 13 14  1  0  0  0
 14 15  1  0  0  0
 15 16  1  0  0  0
 13 17  1  0  0  0
 17 18  1  0  0  0
 18 19  1  0  0  0
  6  1  1  0  0  0
M  CHG 1  10  -1
M  END
> <minimizedAffinity>
-4.51553

> <newdefault_CNNaffinity>
4.38097

> <newdefault_CNNscore>
0.469117

> <CNNaffinity_times_score>
2.0551875

> <protein>
4agq

$$$$
144203883


 21 22  0  0  0  0  0  0  0  0999 V2000
   91.0141   95.5618  -43.7838 C   0  0  0  0  0  0  0  0  0  0  0  0
   91.2452   94.2664  -43.4349 N   0  0  0  0  0  0  0  0  0  0  0  0
   91.6465   93.9256  -42.1849 C   0  0  0  0  0  0  0  0  0  0  0  0
   91.8780   92.5574  -41.8583 N   0  0  0  0  0  0  0  0  0  0  0  0
   91.8279   94.8878  -41.2465 N   0  0  0  0  0  0  0  0  0  0  0  0
   91.6159   96.2001  -41.5261 C   0  0  0  0  0  0  0  0  0  0  0  0
   91.8122   97.1667  -40.4882 N   0  0  0  0  0  0  0  0  0  0  0  0
   91.1968   96.5773  -42.8193 C   0  0  0  0  0  0  0  0  0  0  0  0
   91.7462   91.8594  -42.5400 H   0  0  0  0  0  0  0  0  0  0  0  0
   92.1697   92.3105  -40.9510 H   0  0  0  0  0  0  0  0  0  0  0  0
   92.1052   96.8764  -39.5942 H   0  0  0  0  0  0  0  0  0  0  0  0
   91.6543   98.1216  -40.6685 H   0  0  0  0  0  0  0  0  0  0  0  0
   90.9719   97.9975  -43.1596 C   0  0  0  0  0  0  0  0  0  0  0  0
   92.0081   98.7641  -43.7133 C   0  0  0  0  0  0  0  0  0  0  0  0
   91.7928  100.1081  -44.0332 C   0  0  0  0  0  0  0  0  0  0  0  0
   90.5422  100.6922  -43.8033 C   0  0  0  0  0  0  0  0  0  0  0  0
   90.2737  102.3783  -44.2052 Cl  0  0  0  0  0  0  0  0  0  0  0  0
   89.5058   99.9298  -43.2532 C   0  0  0  0  0  0  0  0  0  0  0  0
   89.7187   98.5857  -42.9320 C   0  0  0  0  0  0  0  0  0  0  0  0
   90.8108   94.7578  -46.1898 C   0  0  0  0  0  0  0  0  0  0  0  0
   90.5839   95.8973  -45.1965 C   0  0  0  0  0  0  0  0  0  0  0  0
 20 21  1  0  0  0
 21  1  1  0  0  0
  1  2  2  0  0  0
  2  3  1  0  0  0
  3  4  1  0  0  0
  3  5  2  0  0  0
  5  6  1  0  0  0
  6  7  1  0  0  0
  6  8  2  0  0  0
  8 13  1  0  0  0
 13 14  2  0  0  0
 14 15  1  0  0  0
 15 16  2  0  0  0
 16 17  1  0  0  0
 16 18  1  0  0  0
 18 19  2  0  0  0
  8  1  1  0  0  0
 19 13  1  0  0  0
  4  9  1  0  0  0
  4 10  1  0  0  0
  7 11  1  0  0  0
  7 12  1  0  0  0
M  END
> <minimizedAffinity>
-6.05220

> <newdefault_CNNaffinity>
4.58044

> <newdefault_CNNscore>
0.598954

> <CNNaffinity_times_score>
2.743473

> <protein>
4agq

$$$$
144204004


 29 31  0  0  0  0  0  0  0  0999 V2000
  104.3374   97.4037  -31.2348 C   0  0  0  0  0  0  0  0  0  0  0  0
  103.3699   96.6187  -30.5586 O   0  0  0  0  0  0  0  0  0  0  0  0
  103.8641   96.1918  -29.3019 C   0  0  0  0  0  0  0  0  0  0  0  0
  105.0307   95.2107  -29.5072 C   0  0  0  0  0  0  0  0  0  0  0  0
  105.5385   94.7961  -28.2647 O   0  0  0  0  0  0  0  0  0  0  0  0
  106.1458   95.9000  -30.3048 C   0  0  0  0  0  0  0  0  0  0  0  0
  107.1241   94.9493  -30.6421 O   0  0  0  0  0  0  0  0  0  0  0  0
  105.5750   96.5401  -31.5855 C   0  0  0  0  0  0  0  0  0  0  0  0
  106.5605   97.3415  -32.1853 O   0  0  0  0  0  0  0  0  0  0  0  0
  105.8622   95.5677  -27.7740 H   0  0  0  0  0  0  0  0  0  0  0  0
  106.7239   94.2520  -31.1848 H   0  0  0  0  0  0  0  0  0  0  0  0
  106.8288   98.0402  -31.5682 H   0  0  0  0  0  0  0  0  0  0  0  0
  103.9183   97.1708  -33.6180 O   0  0  0  0  0  0  0  0  0  0  0  0
  103.6748   97.9785  -32.4982 C   0  0  0  0  0  0  0  0  0  0  0  0
  103.4887   97.5589  -34.3962 H   0  0  0  0  0  0  0  0  0  0  0  0
  102.8198   95.5250  -28.5934 O   0  0  0  0  0  0  0  0  0  0  0  0
  101.4536   95.8405  -28.6828 C   0  0  0  0  0  0  0  0  0  0  0  0
  100.8529   96.8086  -27.8527 C   0  0  0  0  0  0  0  0  0  0  0  0
   99.4864   97.0939  -27.9748 C   0  0  0  0  0  0  0  0  0  0  0  0
   98.8633   98.0506  -27.1672 C   0  0  0  0  0  0  0  0  0  0  0  0
   97.5002   98.2982  -27.3265 C   0  0  0  0  0  0  0  0  0  0  0  0
   96.7896   97.5801  -28.2947 C   0  0  0  0  0  0  0  0  0  0  0  0
   95.5596   97.7918  -28.4561 O   0  0  0  0  0  0  0  0  0  0  0  0
   97.4072   96.6745  -29.0494 O   0  0  0  0  0  0  0  0  0  0  0  0
   98.7056   96.4078  -28.9285 C   0  0  0  0  0  0  0  0  0  0  0  0
   99.2994   95.4458  -29.7489 C   0  0  0  0  0  0  0  0  0  0  0  0
  100.6645   95.1603  -29.6320 C   0  0  0  0  0  0  0  0  0  0  0  0
  101.2211   94.1925  -30.4682 O   0  0  0  0  0  0  0  0  0  0  0  0
  100.6833   93.7490  -31.0943 H   0  0  0  0  0  0  0  0  0  0  0  0
 13 14  1  0  0  0
  1 14  1  0  0  0
  1  2  1  0  0  0
  2  3  1  0  0  0
  3 16  1  0  0  0
 16 17  1  0  0  0
 17 18  2  0  0  0
 18 19  1  0  0  0
 19 20  1  0  0  0
 20 21  2  0  0  0
 21 22  1  0  0  0
 22 23  2  0  0  0
 22 24  1  0  0  0
 24 25  1  0  0  0
 25 26  1  0  0  0
 26 27  2  0  0  0
 27 28  1  0  0  0
  3  4  1  0  0  0
  4  5  1  0  0  0
  4  6  1  0  0  0
  6  7  1  0  0  0
  6  8  1  0  0  0
  8  9  1  0  0  0
  8  1  1  0  0  0
 27 17  1  0  0  0
 25 19  2  0  0  0
 13 15  1  0  0  0
 28 29  1  0  0  0
  5 10  1  0  0  0
  7 11  1  0  0  0
  9 12  1  0  0  0
M  END
> <minimizedAffinity>
-6.43174

> <newdefault_CNNaffinity>
4.12904

> <newdefault_CNNscore>
0.40557

> <CNNaffinity_times_score>
1.6746147

> <protein>
4agq

$$$$
144204354


 29 30  0  0  0  0  0  0  0  0999 V2000
   96.6270   99.3332  -28.4403 C   0  0  0  0  0  0  0  0  0  0  0  0
   96.6728   99.6683  -29.9124 C   0  0  0  0  0  0  0  0  0  0  0  0
   95.5947   99.7530  -30.5624 O   0  0  0  0  0  0  0  0  0  0  0  0
   98.3758   98.9913  -31.5959 C   0  0  0  0  0  0  0  0  0  0  0  0
   97.9423   99.8449  -30.6527 C   0  0  0  0  0  0  0  0  0  0  0  0
  101.9689   98.4558  -32.6863 C   0  0  0  0  0  0  0  0  0  0  0  0
  100.7447   98.3603  -32.0099 C   0  0  0  0  0  0  0  0  0  0  0  0
   99.6394   99.1533  -32.3684 C   0  0  0  0  0  0  0  0  0  0  0  0
   99.7840  100.0678  -33.4299 C   0  0  0  0  0  0  0  0  0  0  0  0
  100.9953  100.1685  -34.1159 C   0  0  0  0  0  0  0  0  0  0  0  0
  102.0914   99.3718  -33.7582 C   0  0  0  0  0  0  0  0  0  0  0  0
  103.2828   99.4996  -34.4701 O   0  0  0  0  0  0  0  0  0  0  0  0
  103.3430  100.1122  -35.1766 H   0  0  0  0  0  0  0  0  0  0  0  0
  103.1844   96.2461  -32.5734 C   0  0  0  0  0  0  0  0  0  0  0  0
  103.0111   97.6198  -32.2429 O   0  0  0  0  0  0  0  0  0  0  0  0
   96.7003   97.8500  -28.2058 C   0  0  0  0  0  0  0  0  0  0  0  0
   95.6384   97.2189  -27.9470 O   0  0  0  0  0  0  0  0  0  0  0  0
   97.9949   97.1411  -28.2859 C   0  0  0  0  0  0  0  0  0  0  0  0
   98.2946   96.3195  -29.3027 C   0  0  0  0  0  0  0  0  0  0  0  0
   99.5962   95.6200  -29.4382 C   0  0  0  0  0  0  0  0  0  0  0  0
   99.6342   94.4035  -30.1372 C   0  0  0  0  0  0  0  0  0  0  0  0
  100.8354   93.7080  -30.2870 C   0  0  0  0  0  0  0  0  0  0  0  0
  102.0169   94.2104  -29.7290 C   0  0  0  0  0  0  0  0  0  0  0  0
  103.2165   93.5157  -29.8802 O   0  0  0  0  0  0  0  0  0  0  0  0
  101.9993   95.4143  -29.0103 C   0  0  0  0  0  0  0  0  0  0  0  0
  100.7843   96.1146  -28.8626 C   0  0  0  0  0  0  0  0  0  0  0  0
  103.2345   92.7107  -30.3594 H   0  0  0  0  0  0  0  0  0  0  0  0
  103.2038   95.8779  -28.4559 O   0  0  0  0  0  0  0  0  0  0  0  0
  103.3666   96.2822  -27.0982 C   0  0  0  0  0  0  0  0  0  0  0  0
 14 15  1  0  0  0
 15  6  1  0  0  0
  6  7  2  0  0  0
  7  8  1  0  0  0
  8  4  1  0  0  0
  4  5  2  0  0  0
  5  2  1  0  0  0
  2  3  2  0  0  0
  2  1  1  0  0  0
  1 16  1  0  0  0
 16 17  2  0  0  0
 16 18  1  0  0  0
 18 19  2  0  0  0
 19 20  1  0  0  0
 20 21  2  0  0  0
 21 22  1  0  0  0
 22 23  2  0  0  0
 23 24  1  0  0  0
 23 25  1  0  0  0
 25 28  1  0  0  0
 28 29  1  0  0  0
 25 26  2  0  0  0
  8  9  2  0  0  0
  9 10  1  0  0  0
 10 11  2  0  0  0
 11 12  1  0  0  0
 11  6  1  0  0  0
 26 20  1  0  0  0
 24 27  1  0  0  0
 12 13  1  0  0  0
M  END
> <minimizedAffinity>
-6.42517

> <newdefault_CNNaffinity>
4.71159

> <newdefault_CNNscore>
0.378023

> <CNNaffinity_times_score>
1.7810893

> <protein>
4ago

$$$$
144204385


 23 25  0  0  0  0  0  0  0  0999 V2000
   93.3132   97.8400  -29.5395 N   0  0  0  0  0  0  0  0  0  0  0  0
   94.6200   97.9286  -30.1076 C   0  0  0  0  0  0  0  0  0  0  0  0
   94.7998   98.4377  -31.3632 N   0  0  0  0  0  0  0  0  0  0  0  0
   96.0490   98.5390  -31.9220 C   0  0  0  0  0  0  0  0  0  0  0  0
   96.2299   99.2019  -33.5312 Cl  0  0  0  0  0  0  0  0  0  0  0  0
   97.1539   98.1283  -31.2292 N   0  0  0  0  0  0  0  0  0  0  0  0
   96.9705   97.6178  -29.9876 C   0  0  0  0  0  0  0  0  0  0  0  0
   95.7505   97.5119  -29.4140 C   0  0  0  0  0  0  0  0  0  0  0  0
   95.8553   97.0095  -28.1691 N   0  0  0  0  0  0  0  0  0  0  0  0
   97.1975   96.8207  -28.0339 C   0  0  0  0  0  0  0  0  0  0  0  0
   97.9053   97.1737  -29.1393 N   0  0  0  0  0  0  0  0  0  0  0  0
   92.5309   98.1430  -30.0547 H   0  0  0  0  0  0  0  0  0  0  0  0
   93.1944   97.4760  -28.6325 H   0  0  0  0  0  0  0  0  0  0  0  0
   99.3585   97.1994  -29.3103 C   0  0  0  0  0  0  0  0  0  0  0  0
  100.0583   96.8270  -28.0156 C   0  0  0  0  0  0  0  0  0  0  0  0
  101.3009   96.1387  -28.4961 C   0  0  0  0  0  0  0  0  0  0  0  0
  102.3303   97.0814  -28.6528 O   0  0  0  0  0  0  0  0  0  0  0  0
  100.8744   95.5816  -29.8585 C   0  0  0  0  0  0  0  0  0  0  0  0
   99.7466   96.2958  -30.3215 O   0  0  0  0  0  0  0  0  0  0  0  0
  102.0367   97.7839  -29.2537 H   0  0  0  0  0  0  0  0  0  0  0  0
  100.5270   94.0878  -29.7704 C   0  0  0  0  0  0  0  0  0  0  0  0
  101.4732   93.4092  -28.9895 O   0  0  0  0  0  0  0  0  0  0  0  0
  102.3504   93.4992  -29.3937 H   0  0  0  0  0  0  0  0  0  0  0  0
  1  2  1  0  0  0
  2  3  2  0  0  0
  3  4  1  0  0  0
  4  5  1  0  0  0
  4  6  2  0  0  0
  6  7  1  0  0  0
  7  8  2  0  0  0
  8  9  1  0  0  0
  9 10  2  0  0  0
 10 11  1  0  0  0
 14 11  1  0  0  0
 14 15  1  0  0  0
 15 16  1  0  0  0
 16 17  1  0  0  0
 16 18  1  0  0  0
 18 21  1  0  0  0
 21 22  1  0  0  0
 18 19  1  0  0  0
  8  2  1  0  0  0
 11  7  1  0  0  0
 19 14  1  0  0  0
  1 12  1  0  0  0
  1 13  1  0  0  0
 17 20  1  0  0  0
 22 23  1  0  0  0
M  END
> <minimizedAffinity>
-6.10116

> <newdefault_CNNaffinity>
4.2389

> <newdefault_CNNscore>
0.617813

> <CNNaffinity_times_score>
2.6188476

> <protein>
3zme

$$$$
144204443


 20 21  0  0  0  0  0  0  0  0999 V2000
  101.7184   95.8914  -30.6907 C   0  0  0  0  0  0  0  0  0  0  0  0
  101.2869   96.7907  -29.6897 O   0  0  0  0  0  0  0  0  0  0  0  0
  100.5266   96.0647  -28.7496 C   0  0  0  0  0  0  0  0  0  0  0  0
  100.0281   94.7853  -29.4017 C   0  0  0  0  0  0  0  0  0  0  0  0
  101.0713   94.5152  -30.4538 C   0  0  0  0  0  0  0  0  0  0  0  0
  102.0174   93.5718  -30.0079 O   0  0  0  0  0  0  0  0  0  0  0  0
  102.4346   93.8925  -29.1931 H   0  0  0  0  0  0  0  0  0  0  0  0
   99.4023   96.8875  -28.2564 N   0  0  0  0  0  0  0  0  0  0  0  0
   98.2042   96.8475  -28.9178 C   0  0  0  0  0  0  0  0  0  0  0  0
   97.1263   97.6138  -28.4840 C   0  0  0  0  0  0  0  0  0  0  0  0
   95.9423   97.5696  -29.1454 F   0  0  0  0  0  0  0  0  0  0  0  0
   97.2903   98.4218  -27.3633 C   0  0  0  0  0  0  0  0  0  0  0  0
   96.3331   99.1278  -26.9470 O   0  0  0  0  0  0  0  0  0  0  0  0
   98.4859   98.4463  -26.7188 N   0  0  0  0  0  0  0  0  0  0  0  0
   99.5350   97.6915  -27.1496 C   0  0  0  0  0  0  0  0  0  0  0  0
  100.6240   97.7376  -26.5136 O   0  0  0  0  0  0  0  0  0  0  0  0
   98.5962   99.0198  -25.9262 H   0  0  0  0  0  0  0  0  0  0  0  0
  100.2594   95.7947  -32.6136 O   0  0  0  0  0  0  0  0  0  0  0  0
  101.3596   96.4723  -32.0654 C   0  0  0  0  0  0  0  0  0  0  0  0
  100.0459   96.1733  -33.4807 H   0  0  0  0  0  0  0  0  0  0  0  0
 18 19  1  0  0  0
  1 19  1  0  0  0
  1  2  1  0  0  0
  2  3  1  0  0  0
  3  4  1  0  0  0
  4  5  1  0  0  0
  5  6  1  0  0  0
  3  8  1  0  0  0
  8  9  1  0  0  0
  9 10  2  0  0  0
 10 11  1  0  0  0
 10 12  1  0  0  0
 12 13  2  0  0  0
 12 14  1  0  0  0
 14 15  1  0  0  0
 15 16  2  0  0  0
  5  1  1  0  0  0
 15  8  1  0  0  0
 18 20  1  0  0  0
  6  7  1  0  0  0
 14 17  1  0  0  0
M  END
> <minimizedAffinity>
-5.62400

> <newdefault_CNNaffinity>
4.04997

> <newdefault_CNNscore>
0.663219

> <CNNaffinity_times_score>
2.686017

> <protein>
4ago

$$$$
144204561


 22 22  0  0  0  0  0  0  0  0999 V2000
  133.5372  105.2084  -28.9872 C   0  0  0  0  0  0  0  0  0  0  0  0
  133.6288  106.5604  -29.3410 C   0  0  0  0  0  0  0  0  0  0  0  0
  132.4784  107.2947  -29.6410 C   0  0  0  0  0  0  0  0  0  0  0  0
  131.2002  106.6945  -29.6007 C   0  0  0  0  0  0  0  0  0  0  0  0
  131.1251  105.3283  -29.2495 C   0  0  0  0  0  0  0  0  0  0  0  0
  132.2775  104.5977  -28.9491 C   0  0  0  0  0  0  0  0  0  0  0  0
  134.7789  104.4152  -28.6613 C   0  0  0  0  0  0  0  0  0  0  0  0
  134.6743  102.1686  -29.7242 N   0  0  0  0  0  0  0  0  0  0  0  0
  135.2253  103.5252  -29.8413 C   0  0  0  0  0  0  0  0  0  0  0  0
  133.6561  102.2170  -29.6889 H   0  0  0  0  0  0  0  0  0  0  0  0
  135.0237  101.7321  -28.8711 H   0  0  0  0  0  0  0  0  0  0  0  0
  134.9605  101.6145  -30.5314 H   0  0  0  0  0  0  0  0  0  0  0  0
  136.7286  103.4678  -29.8944 C   0  0  0  0  0  0  0  0  0  0  0  0
  137.3250  103.5098  -31.0028 O   0  0  0  0  0  0  0  0  0  0  0  0
  137.4683  103.3653  -28.7221 O   0  0  0  0  0  0  0  0  0  0  0  0
  129.9987  107.4595  -29.9120 N   0  0  0  0  0  0  0  0  0  0  0  0
  128.7513  107.2730  -29.1509 C   0  0  0  0  0  0  0  0  0  0  0  0
  128.9133  107.7719  -27.7143 C   0  0  0  0  0  0  0  0  0  0  0  0
  128.8788  106.3974  -26.5821 Cl  0  0  0  0  0  0  0  0  0  0  0  0
  129.9805  108.4507  -31.0017 C   0  0  0  0  0  0  0  0  0  0  0  0
  129.0748  107.9850  -32.1425 C   0  0  0  0  0  0  0  0  0  0  0  0
  129.8598  108.2932  -33.7114 Cl  0  0  0  0  0  0  0  0  0  0  0  0
  9  8  1  0  0  0
  9  7  1  0  0  0
  7  1  1  0  0  0
  1  2  2  0  0  0
  2  3  1  0  0  0
  3  4  2  0  0  0
  4  5  1  0  0  0
  5  6  2  0  0  0
  4 16  1  0  0  0
 16 17  1  0  0  0
 17 18  1  0  0  0
 18 19  1  0  0  0
 16 20  1  0  0  0
 20 21  1  0  0  0
 21 22  1  0  0  0
  9 13  1  0  0  0
 13 14  2  0  0  0
 13 15  1  0  0  0
  6  1  1  0  0  0
  8 10  1  0  0  0
  8 11  1  0  0  0
  8 12  1  0  0  0
M  CHG 1   8   1
M  CHG 1  15  -1
M  END
> <minimizedAffinity>
-5.28704

> <newdefault_CNNaffinity>
4.84823

> <newdefault_CNNscore>
0.729099

> <CNNaffinity_times_score>
3.5348394

> <protein>
2vuk

$$$$
144204616


 16 17  0  0  0  0  0  0  0  0999 V2000
   97.1297   97.6463  -30.2349 N   0  0  0  0  0  0  0  0  0  0  0  0
   95.7451   97.9375  -30.3913 C   0  0  0  0  0  0  0  0  0  0  0  0
   94.8562   97.5632  -29.5816 O   0  0  0  0  0  0  0  0  0  0  0  0
   95.4829   98.5504  -31.7243 C   0  0  0  0  0  0  0  0  0  0  0  0
   94.4180   99.6293  -31.9030 C   0  0  0  0  0  0  0  0  0  0  0  0
   94.5728  100.2518  -33.2896 C   0  0  0  0  0  0  0  0  0  0  0  0
   95.6966  100.1153  -34.0474 C   0  0  0  0  0  0  0  0  0  0  0  0
   96.9122   99.3087  -33.5973 C   0  0  0  0  0  0  0  0  0  0  0  0
   96.8475   99.1446  -32.0814 C   0  0  0  0  0  0  0  0  0  0  0  0
   97.7750   98.2290  -31.3615 C   0  0  0  0  0  0  0  0  0  0  0  0
   98.9811   98.0279  -31.6627 O   0  0  0  0  0  0  0  0  0  0  0  0
   97.8301   96.4607  -29.1210 S   0  0  0  0  0  0  0  0  0  0  0  0
   96.4942   97.3297  -26.6089 Cl  0  0  0  0  0  0  0  0  0  0  0  0
   97.8906   97.5896  -27.6834 C   0  0  0  0  0  0  0  0  0  0  0  0
   99.3749   97.2528  -26.7655 Cl  0  0  0  0  0  0  0  0  0  0  0  0
   97.9304   99.2900  -28.2119 Cl  0  0  0  0  0  0  0  0  0  0  0  0
 13 14  1  0  0  0
 14 15  1  0  0  0
 14 16  1  0  0  0
 14 12  1  0  0  0
 12  1  1  0  0  0
  1  2  1  0  0  0
  2  3  2  0  0  0
  2  4  1  0  0  0
  4  5  1  0  0  0
  5  6  1  0  0  0
  6  7  2  0  0  0
  7  8  1  0  0  0
  9  8  1  0  0  0
  9 10  1  0  0  0
 10 11  2  0  0  0
 10  1  1  0  0  0
  9  4  1  0  0  0
M  END
> <minimizedAffinity>
-4.85514

> <newdefault_CNNaffinity>
4.3895

> <newdefault_CNNscore>
0.595348

> <CNNaffinity_times_score>
2.61328

> <protein>
3zme

$$$$
144204648


 21 24  0  0  0  0  0  0  0  0999 V2000
  100.2642   98.1002  -32.2016 O   0  0  0  0  0  0  0  0  0  0  0  0
   99.7232   98.1882  -31.0623 C   0  0  0  0  0  0  0  0  0  0  0  0
  100.2088   97.4455  -30.0207 N   0  0  0  0  0  0  0  0  0  0  0  0
   99.6380   97.5672  -28.7831 C   0  0  0  0  0  0  0  0  0  0  0  0
  100.1001   96.9038  -27.8110 O   0  0  0  0  0  0  0  0  0  0  0  0
   98.5681   98.3982  -28.5905 N   0  0  0  0  0  0  0  0  0  0  0  0
   98.0606   99.0987  -29.6503 C   0  0  0  0  0  0  0  0  0  0  0  0
   97.0343   99.8202  -29.4925 O   0  0  0  0  0  0  0  0  0  0  0  0
   98.6540   99.0224  -30.8808 N   0  0  0  0  0  0  0  0  0  0  0  0
  101.3760   96.5623  -30.2171 C   0  0  0  0  0  0  0  0  0  0  0  0
  100.9451   95.2790  -30.9309 C   0  0  0  0  0  0  0  0  0  0  0  0
  101.0438   94.0258  -30.1508 C   0  0  0  0  0  0  0  0  0  0  0  0
   99.8147   94.6938  -30.3299 O   0  0  0  0  0  0  0  0  0  0  0  0
   97.9265   98.4881  -27.2635 C   0  0  0  0  0  0  0  0  0  0  0  0
   96.7878   97.4703  -27.1641 C   0  0  0  0  0  0  0  0  0  0  0  0
   96.0059   97.4762  -25.9081 C   0  0  0  0  0  0  0  0  0  0  0  0
   95.5278   98.0928  -27.0831 O   0  0  0  0  0  0  0  0  0  0  0  0
   98.1033   99.7848  -32.0194 C   0  0  0  0  0  0  0  0  0  0  0  0
   96.8687   99.0722  -32.5763 C   0  0  0  0  0  0  0  0  0  0  0  0
   95.7767   99.9374  -33.0740 C   0  0  0  0  0  0  0  0  0  0  0  0
   96.6915   99.3184  -33.9510 O   0  0  0  0  0  0  0  0  0  0  0  0
  1  2  2  0  0  0
  2  3  1  0  0  0
  3 10  1  0  0  0
 11 10  1  0  0  0
 11 12  1  0  0  0
 12 13  1  0  0  0
  3  4  1  0  0  0
  4  5  2  0  0  0
  4  6  1  0  0  0
  6 14  1  0  0  0
 15 14  1  0  0  0
 15 16  1  0  0  0
 16 17  1  0  0  0
  6  7  1  0  0  0
  7  8  2  0  0  0
  7  9  1  0  0  0
  9 18  1  0  0  0
 19 18  1  0  0  0
 19 20  1  0  0  0
 20 21  1  0  0  0
  9  2  1  0  0  0
 13 11  1  0  0  0
 17 15  1  0  0  0
 21 19  1  0  0  0
M  END
> <minimizedAffinity>
-4.31380

> <newdefault_CNNaffinity>
4.21975

> <newdefault_CNNscore>
0.746391

> <CNNaffinity_times_score>
3.1495833

> <protein>
5g4o

$$$$
144204721


  9  8  0  0  0  0  0  0  0  0999 V2000
   91.5213   95.1556  -41.6078 C   0  0  0  0  0  0  0  0  0  0  0  0
   92.1977   94.3822  -42.6689 N   0  0  0  0  0  0  0  0  0  0  0  0
   92.9698   94.9307  -43.0475 H   0  0  0  0  0  0  0  0  0  0  0  0
   91.2556   94.0950  -43.7834 C   0  0  0  0  0  0  0  0  0  0  0  0
   91.7393   92.9425  -44.6746 C   0  0  0  0  0  0  0  0  0  0  0  0
   90.8918   92.9852  -46.2415 Cl  0  0  0  0  0  0  0  0  0  0  0  0
   92.7398   93.1236  -42.0936 C   0  0  0  0  0  0  0  0  0  0  0  0
   93.9891   93.3687  -41.2344 C   0  0  0  0  0  0  0  0  0  0  0  0
   95.0969   91.9784  -41.3578 Cl  0  0  0  0  0  0  0  0  0  0  0  0
  1  2  1  0  0  0
  2  4  1  0  0  0
  4  5  1  0  0  0
  5  6  1  0  0  0
  2  7  1  0  0  0
  7  8  1  0  0  0
  8  9  1  0  0  0
  2  3  1  0  0  0
M  CHG 1   2   1
M  END
> <minimizedAffinity>
-3.69340

> <newdefault_CNNaffinity>
3.94067

> <newdefault_CNNscore>
0.804906

> <CNNaffinity_times_score>
3.171869

> <protein>
5g4o

$$$$
144204754


 22 23  0  0  0  0  0  0  0  0999 V2000
  100.0877   95.2064  -29.4222 C   0  0  0  0  0  0  0  0  0  0  0  0
  101.4392   95.5018  -29.1629 O   0  0  0  0  0  0  0  0  0  0  0  0
  102.1781   94.3198  -29.3972 C   0  0  0  0  0  0  0  0  0  0  0  0
  101.3116   93.3161  -30.1802 C   0  0  0  0  0  0  0  0  0  0  0  0
  101.0464   92.1934  -29.3775 O   0  0  0  0  0  0  0  0  0  0  0  0
  100.0318   94.0835  -30.4533 C   0  0  0  0  0  0  0  0  0  0  0  0
   99.9921   94.5692  -31.7754 O   0  0  0  0  0  0  0  0  0  0  0  0
  100.6210   92.4782  -28.5536 H   0  0  0  0  0  0  0  0  0  0  0  0
  100.7687   95.1272  -31.9383 H   0  0  0  0  0  0  0  0  0  0  0  0
   97.3167   99.8741  -31.0631 N   0  0  0  0  0  0  0  0  0  0  0  0
   98.0180   98.6995  -30.6547 C   0  0  0  0  0  0  0  0  0  0  0  0
   97.3617   97.7182  -29.9873 N   0  0  0  0  0  0  0  0  0  0  0  0
   97.9944   96.5856  -29.5828 C   0  0  0  0  0  0  0  0  0  0  0  0
   97.3331   95.7174  -28.9530 O   0  0  0  0  0  0  0  0  0  0  0  0
   99.3318   96.4035  -29.8555 N   0  0  0  0  0  0  0  0  0  0  0  0
  100.0182   97.3894  -30.5112 C   0  0  0  0  0  0  0  0  0  0  0  0
   99.3751   98.5524  -30.9284 C   0  0  0  0  0  0  0  0  0  0  0  0
   96.3570   99.9684  -30.8647 H   0  0  0  0  0  0  0  0  0  0  0  0
   97.7927  100.5897  -31.5432 H   0  0  0  0  0  0  0  0  0  0  0  0
  103.4680   94.6667  -30.1536 C   0  0  0  0  0  0  0  0  0  0  0  0
  103.2449   94.6443  -31.5379 O   0  0  0  0  0  0  0  0  0  0  0  0
  102.9584   93.7568  -31.8048 H   0  0  0  0  0  0  0  0  0  0  0  0
 10 11  1  0  0  0
 11 12  2  0  0  0
 12 13  1  0  0  0
 13 14  2  0  0  0
 13 15  1  0  0  0
 15 16  1  0  0  0
 16 17  2  0  0  0
  1 15  1  0  0  0
  1  2  1  0  0  0
  2  3  1  0  0  0
  3 20  1  0  0  0
 20 21  1  0  0  0
  3  4  1  0  0  0
  4  5  1  0  0  0
  4  6  1  0  0  0
  6  7  1  0  0  0
 17 11  1  0  0  0
  6  1  1  0  0  0
 10 18  1  0  0  0
 10 19  1  0  0  0
 21 22  1  0  0  0
  5  8  1  0  0  0
  7  9  1  0  0  0
M  END
> <minimizedAffinity>
-5.76260

> <newdefault_CNNaffinity>
3.8624

> <newdefault_CNNscore>
0.780599

> <CNNaffinity_times_score>
3.0149856

> <protein>
5o1i

$$$$
144204994


 33 35  0  0  0  0  0  0  0  0999 V2000
   89.0797   97.5946  -46.9786 N   0  0  0  0  0  0  0  0  0  0  0  0
   88.6941   98.5137  -46.7618 H   0  0  0  0  0  0  0  0  0  0  0  0
   89.9281   97.6375  -47.5432 H   0  0  0  0  0  0  0  0  0  0  0  0
   89.4596   96.9404  -45.7022 C   0  0  0  0  0  0  0  0  0  0  0  0
   90.7375   96.0900  -45.8500 C   0  0  0  0  0  0  0  0  0  0  0  0
   90.9203   95.1054  -44.6910 C   0  0  0  0  0  0  0  0  0  0  0  0
   91.2528   95.6754  -43.3213 C   0  0  0  0  0  0  0  0  0  0  0  0
   91.6087   94.7246  -42.3447 C   0  0  0  0  0  0  0  0  0  0  0  0
   91.9709   95.1116  -41.0568 C   0  0  0  0  0  0  0  0  0  0  0  0
   91.9788   96.4574  -40.7120 C   0  0  0  0  0  0  0  0  0  0  0  0
   91.6165   97.4204  -41.6508 C   0  0  0  0  0  0  0  0  0  0  0  0
   91.2462   97.0583  -42.9640 C   0  0  0  0  0  0  0  0  0  0  0  0
   90.8294   98.0946  -43.8830 N   0  0  0  0  0  0  0  0  0  0  0  0
   89.5923   97.9446  -44.5885 C   0  0  0  0  0  0  0  0  0  0  0  0
   88.6175   98.6899  -44.3009 O   0  0  0  0  0  0  0  0  0  0  0  0
   91.4761   99.4167  -43.9002 C   0  0  0  0  0  0  0  0  0  0  0  0
   91.6856   99.8858  -45.3059 C   0  0  0  0  0  0  0  0  0  0  0  0
   91.0830  100.9074  -45.7281 O   0  0  0  0  0  0  0  0  0  0  0  0
   92.5525   99.2008  -46.1474 O   0  0  0  0  0  0  0  0  0  0  0  0
   88.0722   96.8472  -47.7891 C   0  0  0  0  0  0  0  0  0  0  0  0
   88.6024   96.5870  -49.1781 C   0  0  0  0  0  0  0  0  0  0  0  0
   88.3054   95.5141  -49.7715 O   0  0  0  0  0  0  0  0  0  0  0  0
   89.4161   97.5438  -49.7964 O   0  0  0  0  0  0  0  0  0  0  0  0
   89.9825   99.1993  -51.4820 C   0  0  0  0  0  0  0  0  0  0  0  0
   89.3663   97.8353  -51.1909 C   0  0  0  0  0  0  0  0  0  0  0  0
   86.7296   97.6154  -47.8672 C   0  0  0  0  0  0  0  0  0  0  0  0
   85.5783   96.8551  -47.1808 C   0  0  0  0  0  0  0  0  0  0  0  0
   85.0144   97.5127  -45.9354 C   0  0  0  0  0  0  0  0  0  0  0  0
   83.8026   98.2157  -46.0559 C   0  0  0  0  0  0  0  0  0  0  0  0
   83.2338   98.8532  -44.9497 C   0  0  0  0  0  0  0  0  0  0  0  0
   83.8680   98.7977  -43.7075 C   0  0  0  0  0  0  0  0  0  0  0  0
   85.0725   98.1049  -43.5699 C   0  0  0  0  0  0  0  0  0  0  0  0
   85.6474   97.4657  -44.6730 C   0  0  0  0  0  0  0  0  0  0  0  0
 24 25  1  0  0  0
 25 23  1  0  0  0
 23 21  1  0  0  0
 21 22  2  0  0  0
 21 20  1  0  0  0
 20 26  1  0  0  0
 26 27  1  0  0  0
 27 28  1  0  0  0
 28 29  2  0  0  0
 29 30  1  0  0  0
 30 31  2  0  0  0
 31 32  1  0  0  0
 32 33  2  0  0  0
 20  1  1  0  0  0
  4  1  1  0  0  0
  4  5  1  0  0  0
  5  6  1  0  0  0
  6  7  1  0  0  0
  7  8  2  0  0  0
  8  9  1  0  0  0
  9 10  2  0  0  0
 10 11  1  0  0  0
 11 12  2  0  0  0
 12 13  1  0  0  0
 13 16  1  0  0  0
 16 17  1  0  0  0
 17 18  2  0  0  0
 17 19  1  0  0  0
 13 14  1  0  0  0
 14 15  2  0  0  0
 33 28  1  0  0  0
 14  4  1  0  0  0
 12  7  1  0  0  0
  1  2  1  0  0  0
  1  3  1  0  0  0
M  CHG 1   1   1
M  CHG 1  19  -1
M  END
> <minimizedAffinity>
-5.70094

> <newdefault_CNNaffinity>
4.50443

> <newdefault_CNNscore>
0.315921

> <CNNaffinity_times_score>
1.423044

> <protein>
5g4o

$$$$
144205017


 20 20  0  0  0  0  0  0  0  0999 V2000
  115.5993   94.1924  -39.3758 N   0  0  0  0  0  0  0  0  0  0  0  0
  116.6972   93.5097  -40.0032 C   0  0  0  0  0  0  0  0  0  0  0  0
  117.8826   93.8486  -39.7342 O   0  0  0  0  0  0  0  0  0  0  0  0
  116.4541   92.4384  -40.9380 N   0  0  0  0  0  0  0  0  0  0  0  0
  115.4780   91.5207  -40.6671 C   0  0  0  0  0  0  0  0  0  0  0  0
  115.2301   90.4700  -41.5468 C   0  0  0  0  0  0  0  0  0  0  0  0
  114.2634   89.5583  -41.2720 F   0  0  0  0  0  0  0  0  0  0  0  0
  115.9985   90.3719  -42.7034 C   0  0  0  0  0  0  0  0  0  0  0  0
  115.7982   89.4313  -43.5178 O   0  0  0  0  0  0  0  0  0  0  0  0
  116.9662   91.2931  -42.9508 N   0  0  0  0  0  0  0  0  0  0  0  0
  117.1990   92.3190  -42.0852 C   0  0  0  0  0  0  0  0  0  0  0  0
  118.0960   93.1634  -42.3600 O   0  0  0  0  0  0  0  0  0  0  0  0
  114.6817   93.9061  -39.5886 H   0  0  0  0  0  0  0  0  0  0  0  0
  117.5083   91.2179  -43.7692 H   0  0  0  0  0  0  0  0  0  0  0  0
  115.7895   95.2953  -38.4337 C   0  0  0  0  0  0  0  0  0  0  0  0
  116.0504   96.6179  -39.1670 C   0  0  0  0  0  0  0  0  0  0  0  0
  117.4102   97.2248  -38.7838 C   0  0  0  0  0  0  0  0  0  0  0  0
  118.3441   97.3923  -39.9925 C   0  0  0  0  0  0  0  0  0  0  0  0
  120.2856   96.0614  -40.9055 C   0  0  0  0  0  0  0  0  0  0  0  0
  119.7613   96.8666  -39.7201 C   0  0  0  0  0  0  0  0  0  0  0  0
 19 20  1  0  0  0
 20 18  1  0  0  0
 18 17  1  0  0  0
 17 16  1  0  0  0
 16 15  1  0  0  0
 15  1  1  0  0  0
  1  2  1  0  0  0
  2  3  2  0  0  0
  2  4  1  0  0  0
  4  5  1  0  0  0
  5  6  2  0  0  0
  6  7  1  0  0  0
  6  8  1  0  0  0
  8  9  2  0  0  0
  8 10  1  0  0  0
 10 11  1  0  0  0
 11 12  2  0  0  0
 11  4  1  0  0  0
  1 13  1  0  0  0
 10 14  1  0  0  0
M  END
> <minimizedAffinity>
-4.66312

> <newdefault_CNNaffinity>
3.89976

> <newdefault_CNNscore>
0.504847

> <CNNaffinity_times_score>
1.9687821

> <protein>
2vuk

$$$$
144205046


 31 34  0  0  0  0  0  0  0  0999 V2000
  100.9758   96.5880  -30.5852 C   0  0  0  0  0  0  0  0  0  0  0  0
  101.7733   95.2598  -30.4378 C   0  0  0  0  0  0  0  0  0  0  0  0
  101.7169   94.5920  -29.1170 N   0  0  0  0  0  0  0  0  0  0  0  0
  100.7965   94.1906  -30.1974 C   0  0  0  0  0  0  0  0  0  0  0  0
   99.4127   94.8113  -30.0644 C   0  0  0  0  0  0  0  0  0  0  0  0
   99.6352   96.2470  -30.1304 N   0  0  0  0  0  0  0  0  0  0  0  0
   99.2641   97.1371  -29.0878 C   0  0  0  0  0  0  0  0  0  0  0  0
  100.2082   98.0032  -28.7989 C   0  0  0  0  0  0  0  0  0  0  0  0
  101.4078   97.8048  -29.6806 C   0  0  0  0  0  0  0  0  0  0  0  0
   99.9763   99.0692  -27.8060 C   0  0  0  0  0  0  0  0  0  0  0  0
  100.8538   99.9505  -27.6083 O   0  0  0  0  0  0  0  0  0  0  0  0
   98.6836   99.0988  -27.0571 C   0  0  0  0  0  0  0  0  0  0  0  0
   97.7336   98.1571  -27.3187 C   0  0  0  0  0  0  0  0  0  0  0  0
   96.4193   98.1474  -26.5757 C   0  0  0  0  0  0  0  0  0  0  0  0
   97.9632   97.1565  -28.3996 C   0  0  0  0  0  0  0  0  0  0  0  0
   97.0566   96.3505  -28.7410 O   0  0  0  0  0  0  0  0  0  0  0  0
   98.4716  100.0983  -26.0388 N   0  0  0  0  0  0  0  0  0  0  0  0
  101.3622   95.0958  -28.3042 H   0  0  0  0  0  0  0  0  0  0  0  0
  102.3888   94.1078  -28.5216 H   0  0  0  0  0  0  0  0  0  0  0  0
   99.1656  100.7731  -25.8593 H   0  0  0  0  0  0  0  0  0  0  0  0
   97.6328  100.1056  -25.5233 H   0  0  0  0  0  0  0  0  0  0  0  0
   97.7487  100.2846  -26.6807 H   0  0  0  0  0  0  0  0  0  0  0  0
  102.0834   96.8521  -32.6591 C   0  0  0  0  0  0  0  0  0  0  0  0
  100.8672   96.9858  -31.9473 O   0  0  0  0  0  0  0  0  0  0  0  0
  102.7109   97.6018  -28.8802 C   0  0  0  0  0  0  0  0  0  0  0  0
  102.4311   96.9253  -27.6588 O   0  0  0  0  0  0  0  0  0  0  0  0
  103.1174   97.1950  -26.4720 C   0  0  0  0  0  0  0  0  0  0  0  0
  104.0685   96.4575  -26.0960 O   0  0  0  0  0  0  0  0  0  0  0  0
  102.7354   98.3153  -25.6790 N   0  0  0  0  0  0  0  0  0  0  0  0
  101.9933   98.8936  -25.9690 H   0  0  0  0  0  0  0  0  0  0  0  0
  103.2135   98.5112  -24.8409 H   0  0  0  0  0  0  0  0  0  0  0  0
 23 24  1  0  0  0
  1 24  1  0  0  0
  1  2  1  0  0  0
  2  3  1  0  0  0
  3  4  1  0  0  0
  4  5  1  0  0  0
  5  6  1  0  0  0
  6  7  1  0  0  0
  7  8  2  0  0  0
  8  9  1  0  0  0
  9 25  1  0  0  0
 25 26  1  0  0  0
 26 27  1  0  0  0
 27 28  2  0  0  0
 27 29  1  0  0  0
  8 10  1  0  0  0
 10 11  2  0  0  0
 10 12  1  0  0  0
 12 13  2  0  0  0
 13 14  1  0  0  0
 13 15  1  0  0  0
 15 16  2  0  0  0
 12 17  1  0  0  0
  6  1  1  0  0  0
  9  1  1  0  0  0
  4  2  1  0  0  0
 15  7  1  0  0  0
  3 18  1  0  0  0
  3 19  1  0  0  0
 29 30  1  0  0  0
 29 31  1  0  0  0
 17 20  1  0  0  0
 17 21  1  0  0  0
 17 22  1  0  0  0
M  CHG 1   3   1
M  CHG 1  17   1
M  END
> <minimizedAffinity>
-6.02708

> <newdefault_CNNaffinity>
4.78631

> <newdefault_CNNscore>
0.643925

> <CNNaffinity_times_score>
3.0820248

> <protein>
4ago

$$$$
144205078


 32 33  0  0  0  0  0  0  0  0999 V2000
   99.8418   98.8319  -30.3214 C   0  0  0  0  0  0  0  0  0  0  0  0
   99.9225   97.9912  -31.3820 C   0  0  0  0  0  0  0  0  0  0  0  0
   98.7635   97.7841  -32.2037 N   0  0  0  0  0  0  0  0  0  0  0  0
   97.5842   98.5922  -32.0799 C   0  0  0  0  0  0  0  0  0  0  0  0
   97.4690   99.4430  -31.0339 C   0  0  0  0  0  0  0  0  0  0  0  0
   98.4869   99.3849  -29.9030 C   0  0  0  0  0  0  0  0  0  0  0  0
   96.5256   98.4642  -33.1448 C   0  0  0  0  0  0  0  0  0  0  0  0
   98.7784   97.0637  -32.8745 H   0  0  0  0  0  0  0  0  0  0  0  0
   97.9289   98.5810  -28.7328 C   0  0  0  0  0  0  0  0  0  0  0  0
   97.5765   97.2286  -28.9266 C   0  0  0  0  0  0  0  0  0  0  0  0
   97.0788   96.4603  -27.8731 C   0  0  0  0  0  0  0  0  0  0  0  0
   96.9189   97.0262  -26.6099 C   0  0  0  0  0  0  0  0  0  0  0  0
   97.2535   98.3635  -26.3969 C   0  0  0  0  0  0  0  0  0  0  0  0
   97.7547   99.1475  -27.4437 C   0  0  0  0  0  0  0  0  0  0  0  0
   98.1388  100.8285  -27.0818 Cl  0  0  0  0  0  0  0  0  0  0  0  0
  101.0105   99.1671  -29.4638 C   0  0  0  0  0  0  0  0  0  0  0  0
  101.8716  100.0034  -29.8504 O   0  0  0  0  0  0  0  0  0  0  0  0
  101.1190   98.5829  -28.1956 O   0  0  0  0  0  0  0  0  0  0  0  0
  100.6494   96.7417  -26.7124 C   0  0  0  0  0  0  0  0  0  0  0  0
  101.3702   97.1958  -27.9716 C   0  0  0  0  0  0  0  0  0  0  0  0
   96.3355  100.3979  -30.9000 C   0  0  0  0  0  0  0  0  0  0  0  0
   95.2671  100.0232  -30.3440 O   0  0  0  0  0  0  0  0  0  0  0  0
   96.4615  101.7199  -31.3395 O   0  0  0  0  0  0  0  0  0  0  0  0
   96.0314  102.1466  -32.6263 C   0  0  0  0  0  0  0  0  0  0  0  0
  101.1734   97.2043  -31.7176 C   0  0  0  0  0  0  0  0  0  0  0  0
  100.9097   95.8131  -31.7425 O   0  0  0  0  0  0  0  0  0  0  0  0
  101.8508   95.0975  -30.9617 C   0  0  0  0  0  0  0  0  0  0  0  0
  101.2156   93.8133  -30.4193 C   0  0  0  0  0  0  0  0  0  0  0  0
  101.3627   93.7280  -28.9668 N   0  0  0  0  0  0  0  0  0  0  0  0
  102.3537   93.7176  -28.7254 H   0  0  0  0  0  0  0  0  0  0  0  0
  100.9218   92.8720  -28.6301 H   0  0  0  0  0  0  0  0  0  0  0  0
  100.9153   94.5348  -28.5317 H   0  0  0  0  0  0  0  0  0  0  0  0
 19 20  1  0  0  0
 20 18  1  0  0  0
 18 16  1  0  0  0
 16 17  2  0  0  0
 16  1  1  0  0  0
  1  2  2  0  0  0
  2 25  1  0  0  0
 25 26  1  0  0  0
 26 27  1  0  0  0
 27 28  1  0  0  0
 28 29  1  0  0  0
  2  3  1  0  0  0
  3  4  1  0  0  0
  4  5  2  0  0  0
  5  6  1  0  0  0
  6  9  1  0  0  0
  9 10  2  0  0  0
 10 11  1  0  0  0
 11 12  2  0  0  0
 12 13  1  0  0  0
 13 14  2  0  0  0
 14 15  1  0  0  0
  5 21  1  0  0  0
 21 22  2  0  0  0
 21 23  1  0  0  0
 23 24  1  0  0  0
  4  7  1  0  0  0
  6  1  1  0  0  0
 14  9  1  0  0  0
 29 30  1  0  0  0
 29 31  1  0  0  0
 29 32  1  0  0  0
  3  8  1  0  0  0
M  CHG 1  29   1
M  END
> <minimizedAffinity>
-4.78649

> <newdefault_CNNaffinity>
4.77911

> <newdefault_CNNscore>
0.395078

> <CNNaffinity_times_score>
1.8881212

> <protein>
3zme

$$$$
144205124


 20 22  0  0  0  0  0  0  0  0999 V2000
  108.2024   82.3573  -40.5693 C   0  0  0  0  0  0  0  0  0  0  0  0
  108.3247   81.9539  -39.2211 O   0  0  0  0  0  0  0  0  0  0  0  0
  107.4459   80.8711  -39.0033 C   0  0  0  0  0  0  0  0  0  0  0  0
  106.9029   80.3505  -40.3476 C   0  0  0  0  0  0  0  0  0  0  0  0
  105.4941   80.5940  -40.3013 O   0  0  0  0  0  0  0  0  0  0  0  0
  105.1875   81.1422  -39.0770 C   0  0  0  0  0  0  0  0  0  0  0  0
  103.9439   81.4923  -38.6666 N   0  0  0  0  0  0  0  0  0  0  0  0
  103.7751   82.0411  -37.4272 C   0  0  0  0  0  0  0  0  0  0  0  0
  102.5864   82.3776  -37.0290 N   0  0  0  0  0  0  0  0  0  0  0  0
  104.8959   82.2388  -36.5903 C   0  0  0  0  0  0  0  0  0  0  0  0
  106.1607   81.8632  -37.0578 C   0  0  0  0  0  0  0  0  0  0  0  0
  106.2568   81.3223  -38.2979 N   0  0  0  0  0  0  0  0  0  0  0  0
  107.5827   81.2137  -41.3845 C   0  0  0  0  0  0  0  0  0  0  0  0
  108.5731   80.4868  -42.0725 O   0  0  0  0  0  0  0  0  0  0  0  0
  101.8111   82.2361  -37.6190 H   0  0  0  0  0  0  0  0  0  0  0  0
  102.4600   82.7744  -36.1369 H   0  0  0  0  0  0  0  0  0  0  0  0
  109.2194   80.1401  -41.4377 H   0  0  0  0  0  0  0  0  0  0  0  0
  107.4644   84.3731  -39.4596 O   0  0  0  0  0  0  0  0  0  0  0  0
  107.3664   83.6456  -40.6542 C   0  0  0  0  0  0  0  0  0  0  0  0
  106.9326   85.1814  -39.5287 H   0  0  0  0  0  0  0  0  0  0  0  0
 18 19  1  0  0  0
  1 19  1  0  0  0
  1  2  1  0  0  0
  3  2  1  0  0  0
  3  4  1  0  0  0
  4  5  1  0  0  0
  5  6  1  0  0  0
  6  7  2  0  0  0
  7  8  1  0  0  0
  8  9  2  0  0  0
  8 10  1  0  0  0
 10 11  2  0  0  0
 11 12  1  0  0  0
  4 13  1  0  0  0
 13 14  1  0  0  0
 13  1  1  0  0  0
 12  3  1  0  0  0
 12  6  1  0  0  0
 18 20  1  0  0  0
  9 15  1  0  0  0
  9 16  1  0  0  0
 14 17  1  0  0  0
M  CHG 1   9   1
M  END
> <minimizedAffinity>
-6.39937

> <newdefault_CNNaffinity>
3.80434

> <newdefault_CNNscore>
0.740874

> <CNNaffinity_times_score>
2.8185365

> <protein>
4agq

$$$$
144205864


 20 21  0  0  0  0  0  0  0  0999 V2000
   95.0869   97.6878  -27.6928 N   0  0  0  0  0  0  0  0  0  0  0  0
   96.3392   97.2982  -28.2517 C   0  0  0  0  0  0  0  0  0  0  0  0
   96.9979   98.1323  -29.0915 N   0  0  0  0  0  0  0  0  0  0  0  0
   98.1894   97.7692  -29.6289 C   0  0  0  0  0  0  0  0  0  0  0  0
   98.7853   98.5759  -30.3927 O   0  0  0  0  0  0  0  0  0  0  0  0
   98.7322   96.5441  -29.3375 N   0  0  0  0  0  0  0  0  0  0  0  0
   98.0694   95.7222  -28.4681 C   0  0  0  0  0  0  0  0  0  0  0  0
   96.8798   96.0972  -27.9368 N   0  0  0  0  0  0  0  0  0  0  0  0
   94.6956   98.5614  -27.9231 H   0  0  0  0  0  0  0  0  0  0  0  0
   94.6134   97.0834  -27.0767 H   0  0  0  0  0  0  0  0  0  0  0  0
  100.0428   96.1403  -29.8861 C   0  0  0  0  0  0  0  0  0  0  0  0
  101.0972   96.0948  -28.7936 C   0  0  0  0  0  0  0  0  0  0  0  0
  102.0438   95.0181  -29.2739 C   0  0  0  0  0  0  0  0  0  0  0  0
  103.2519   95.5626  -29.7500 O   0  0  0  0  0  0  0  0  0  0  0  0
  101.2634   94.3068  -30.3951 C   0  0  0  0  0  0  0  0  0  0  0  0
   99.9690   94.8625  -30.4760 O   0  0  0  0  0  0  0  0  0  0  0  0
  103.0646   96.1839  -30.4709 H   0  0  0  0  0  0  0  0  0  0  0  0
  101.1667   92.7912  -30.1705 C   0  0  0  0  0  0  0  0  0  0  0  0
  102.3941   92.2656  -29.7387 O   0  0  0  0  0  0  0  0  0  0  0  0
  103.0706   92.4266  -30.4149 H   0  0  0  0  0  0  0  0  0  0  0  0
  1  2  1  0  0  0
  2  3  2  0  0  0
  3  4  1  0  0  0
  4  5  2  0  0  0
  4  6  1  0  0  0
  6  7  1  0  0  0
  7  8  2  0  0  0
 11  6  1  0  0  0
 11 12  1  0  0  0
 12 13  1  0  0  0
 13 14  1  0  0  0
 13 15  1  0  0  0
 15 18  1  0  0  0
 18 19  1  0  0  0
 15 16  1  0  0  0
  8  2  1  0  0  0
 16 11  1  0  0  0
  1  9  1  0  0  0
  1 10  1  0  0  0
 14 17  1  0  0  0
 19 20  1  0  0  0
M  END
> <minimizedAffinity>
-5.45730

> <newdefault_CNNaffinity>
3.93835

> <newdefault_CNNscore>
0.797138

> <CNNaffinity_times_score>
3.1394083

> <protein>
3zme

$$$$
144205901


 19 21  0  0  0  0  0  0  0  0999 V2000
   91.6673   93.9101  -42.7097 N   0  0  0  0  0  0  0  0  0  0  0  0
   91.0793   93.9784  -43.9653 C   0  0  0  0  0  0  0  0  0  0  0  0
   90.2743   95.0758  -44.3741 C   0  0  0  0  0  0  0  0  0  0  0  0
   89.6326   95.0799  -45.6133 C   0  0  0  0  0  0  0  0  0  0  0  0
   89.7939   94.0153  -46.4909 C   0  0  0  0  0  0  0  0  0  0  0  0
   90.6340   92.9590  -46.1538 C   0  0  0  0  0  0  0  0  0  0  0  0
   91.3045   92.9417  -44.9129 C   0  0  0  0  0  0  0  0  0  0  0  0
   92.2156   91.9206  -44.6175 C   0  0  0  0  0  0  0  0  0  0  0  0
   92.4056   90.9822  -45.4427 O   0  0  0  0  0  0  0  0  0  0  0  0
   92.9419   91.9608  -43.4223 C   0  0  0  0  0  0  0  0  0  0  0  0
   93.9302   90.9908  -43.1537 C   0  0  0  0  0  0  0  0  0  0  0  0
   94.6748   91.0428  -41.9787 C   0  0  0  0  0  0  0  0  0  0  0  0
   94.4517   92.0609  -41.0593 C   0  0  0  0  0  0  0  0  0  0  0  0
   93.4716   93.0240  -41.3004 C   0  0  0  0  0  0  0  0  0  0  0  0
   92.6779   92.9876  -42.4772 C   0  0  0  0  0  0  0  0  0  0  0  0
   91.1620   94.7373  -41.5779 C   0  0  0  0  0  0  0  0  0  0  0  0
   91.5982   97.0443  -42.4511 O   0  0  0  0  0  0  0  0  0  0  0  0
   91.8725   96.0585  -41.5117 C   0  0  0  0  0  0  0  0  0  0  0  0
   92.6849   96.2955  -40.5790 O   0  0  0  0  0  0  0  0  0  0  0  0
 17 18  1  0  0  0
 18 19  2  0  0  0
 18 16  1  0  0  0
 16  1  1  0  0  0
  1  2  1  0  0  0
  2  3  2  0  0  0
  3  4  1  0  0  0
  4  5  2  0  0  0
  5  6  1  0  0  0
  6  7  2  0  0  0
  7  8  1  0  0  0
  8  9  2  0  0  0
  8 10  1  0  0  0
 10 11  2  0  0  0
 11 12  1  0  0  0
 12 13  2  0  0  0
 13 14  1  0  0  0
 14 15  2  0  0  0
 15  1  1  0  0  0
  7  2  1  0  0  0
 15 10  1  0  0  0
M  CHG 1  17  -1
M  END
> <minimizedAffinity>
-7.00959

> <newdefault_CNNaffinity>
4.40988

> <newdefault_CNNscore>
0.594269

> <CNNaffinity_times_score>
2.620655

> <protein>
3zme

$$$$
144206197


 22 23  0  0  0  0  0  0  0  0999 V2000
  131.8300  105.6000  -30.0972 C   0  0  0  0  0  0  0  0  0  0  0  0
  132.2116  104.3076  -29.6731 O   0  0  0  0  0  0  0  0  0  0  0  0
  133.4121  103.9622  -30.3368 C   0  0  0  0  0  0  0  0  0  0  0  0
  133.8433  105.1234  -31.2470 C   0  0  0  0  0  0  0  0  0  0  0  0
  133.5535  104.8489  -32.5987 O   0  0  0  0  0  0  0  0  0  0  0  0
  133.0353  106.2868  -30.7274 C   0  0  0  0  0  0  0  0  0  0  0  0
  132.6533  107.1526  -31.7401 F   0  0  0  0  0  0  0  0  0  0  0  0
  133.7709  106.9820  -29.7791 F   0  0  0  0  0  0  0  0  0  0  0  0
  132.6052  104.6699  -32.6962 H   0  0  0  0  0  0  0  0  0  0  0  0
  129.7676  108.7093  -25.8312 N   0  0  0  0  0  0  0  0  0  0  0  0
  130.2988  107.9148  -26.8917 C   0  0  0  0  0  0  0  0  0  0  0  0
  129.7773  108.0176  -28.1397 N   0  0  0  0  0  0  0  0  0  0  0  0
  130.2565  107.2771  -29.1734 C   0  0  0  0  0  0  0  0  0  0  0  0
  129.7442  107.4235  -30.3160 O   0  0  0  0  0  0  0  0  0  0  0  0
  131.2842  106.3883  -28.9715 N   0  0  0  0  0  0  0  0  0  0  0  0
  131.8427  106.2827  -27.7248 C   0  0  0  0  0  0  0  0  0  0  0  0
  131.3562  107.0382  -26.6605 C   0  0  0  0  0  0  0  0  0  0  0  0
  129.0201  109.3259  -26.0049 H   0  0  0  0  0  0  0  0  0  0  0  0
  130.1489  108.6407  -24.9261 H   0  0  0  0  0  0  0  0  0  0  0  0
  134.4913  103.6320  -29.2949 C   0  0  0  0  0  0  0  0  0  0  0  0
  135.1276  102.4240  -29.6150 O   0  0  0  0  0  0  0  0  0  0  0  0
  134.4746  101.7067  -29.6225 H   0  0  0  0  0  0  0  0  0  0  0  0
 10 11  1  0  0  0
 11 12  2  0  0  0
 12 13  1  0  0  0
 13 14  2  0  0  0
 13 15  1  0  0  0
 15 16  1  0  0  0
 16 17  2  0  0  0
  1 15  1  0  0  0
  1  2  1  0  0  0
  2  3  1  0  0  0
  3 20  1  0  0  0
 20 21  1  0  0  0
  3  4  1  0  0  0
  4  5  1  0  0  0
  4  6  1  0  0  0
  6  7  1  0  0  0
  6  8  1  0  0  0
 17 11  1  0  0  0
  6  1  1  0  0  0
 10 18  1  0  0  0
 10 19  1  0  0  0
 21 22  1  0  0  0
  5  9  1  0  0  0
M  END
> <minimizedAffinity>
-5.55628

> <newdefault_CNNaffinity>
3.68205

> <newdefault_CNNscore>
0.595084

> <CNNaffinity_times_score>
2.191129

> <protein>
2vuk

$$$$
144206335


 35 36  0  0  0  0  0  0  0  0999 V2000
   91.8526   98.0145  -42.9155 C   0  0  0  0  0  0  0  0  0  0  0  0
   91.7088   96.9817  -41.9712 C   0  0  0  0  0  0  0  0  0  0  0  0
   91.3811   95.6852  -42.3805 C   0  0  0  0  0  0  0  0  0  0  0  0
   91.1765   95.4116  -43.7347 C   0  0  0  0  0  0  0  0  0  0  0  0
   91.2914   96.4321  -44.6792 C   0  0  0  0  0  0  0  0  0  0  0  0
   91.6072   97.7427  -44.2788 C   0  0  0  0  0  0  0  0  0  0  0  0
   91.1825  100.3662  -42.2453 C   0  0  0  0  0  0  0  0  0  0  0  0
   89.9560  100.0719  -42.2181 O   0  0  0  0  0  0  0  0  0  0  0  0
   92.1694   99.3529  -42.4922 N   0  0  0  0  0  0  0  0  0  0  0  0
   93.1171   99.5872  -42.3645 H   0  0  0  0  0  0  0  0  0  0  0  0
   91.6226  101.7751  -41.9826 C   0  0  0  0  0  0  0  0  0  0  0  0
   93.4613  103.1430  -41.7571 C   0  0  0  0  0  0  0  0  0  0  0  0
   92.9942  101.9228  -42.2870 O   0  0  0  0  0  0  0  0  0  0  0  0
   91.7682   98.7780  -45.2645 N   0  0  0  0  0  0  0  0  0  0  0  0
   90.7772   99.4573  -45.7828 C   0  0  0  0  0  0  0  0  0  0  0  0
   92.6808   98.9885  -45.5680 H   0  0  0  0  0  0  0  0  0  0  0  0
   91.0364  100.4379  -46.8024 N   0  0  0  0  0  0  0  0  0  0  0  0
   92.1134  100.3423  -47.7432 C   0  0  0  0  0  0  0  0  0  0  0  0
   92.8133   99.2943  -47.8121 O   0  0  0  0  0  0  0  0  0  0  0  0
   90.4401  101.2194  -46.8573 H   0  0  0  0  0  0  0  0  0  0  0  0
   92.3539  101.4095  -48.6131 O   0  0  0  0  0  0  0  0  0  0  0  0
   93.6633  101.8899  -48.8937 C   0  0  0  0  0  0  0  0  0  0  0  0
   89.4482   99.3477  -45.2376 N   0  0  0  0  0  0  0  0  0  0  0  0
   88.4087   98.5759  -45.8501 C   0  0  0  0  0  0  0  0  0  0  0  0
   88.6670   97.8045  -46.8156 O   0  0  0  0  0  0  0  0  0  0  0  0
   89.2443   99.8273  -44.4024 H   0  0  0  0  0  0  0  0  0  0  0  0
   87.1090   98.6621  -45.3428 O   0  0  0  0  0  0  0  0  0  0  0  0
   85.9588   98.3668  -46.1255 C   0  0  0  0  0  0  0  0  0  0  0  0
   91.2210   94.3755  -41.1675 S   0  0  0  0  0  0  0  0  0  0  0  0
   92.0527   93.1806  -42.2136 C   0  0  0  0  0  0  0  0  0  0  0  0
   91.3758   92.6059  -43.2968 C   0  0  0  0  0  0  0  0  0  0  0  0
   92.0251   91.6751  -44.1138 C   0  0  0  0  0  0  0  0  0  0  0  0
   93.3521   91.3196  -43.8517 C   0  0  0  0  0  0  0  0  0  0  0  0
   94.0301   91.8933  -42.7712 C   0  0  0  0  0  0  0  0  0  0  0  0
   93.3820   92.8240  -41.9529 C   0  0  0  0  0  0  0  0  0  0  0  0
 12 13  1  0  0  0
 13 11  1  0  0  0
 11  7  1  0  0  0
  7  8  2  0  0  0
  7  9  1  0  0  0
  9  1  1  0  0  0
  1  2  2  0  0  0
  2  3  1  0  0  0
  3 29  1  0  0  0
 29 30  1  0  0  0
 30 31  2  0  0  0
 31 32  1  0  0  0
 32 33  2  0  0  0
 33 34  1  0  0  0
 34 35  2  0  0  0
  3  4  2  0  0  0
  4  5  1  0  0  0
  5  6  2  0  0  0
  6 14  1  0  0  0
 14 15  2  0  0  0
 15 17  1  0  0  0
 17 18  1  0  0  0
 18 19  2  0  0  0
 18 21  1  0  0  0
 21 22  1  0  0  0
 15 23  1  0  0  0
 23 24  1  0  0  0
 24 25  2  0  0  0
 24 27  1  0  0  0
 27 28  1  0  0  0
  6  1  1  0  0  0
 35 30  1  0  0  0
  9 10  1  0  0  0
 14 16  1  0  0  0
 17 20  1  0  0  0
 23 26  1  0  0  0
M  CHG 1  14   1
M  END
> <minimizedAffinity>
-6.20337

> <newdefault_CNNaffinity>
4.85842

> <newdefault_CNNscore>
0.21471

> <CNNaffinity_times_score>
1.0431514

> <protein>
3zme

$$$$
144206797


 12 12  0  0  0  0  0  0  0  0999 V2000
   86.3479   85.2227  -38.8214 C   0  0  0  0  0  0  0  0  0  0  0  0
   86.4199   85.9300  -40.0331 C   0  0  0  0  0  0  0  0  0  0  0  0
   87.6383   86.4437  -40.4838 C   0  0  0  0  0  0  0  0  0  0  0  0
   88.8010   86.2474  -39.7353 C   0  0  0  0  0  0  0  0  0  0  0  0
   90.3303   86.8910  -40.3046 Cl  0  0  0  0  0  0  0  0  0  0  0  0
   88.7471   85.5266  -38.5391 C   0  0  0  0  0  0  0  0  0  0  0  0
   87.5307   85.0074  -38.0778 C   0  0  0  0  0  0  0  0  0  0  0  0
   87.5515   84.0272  -36.6148 Cl  0  0  0  0  0  0  0  0  0  0  0  0
   85.0350   84.7105  -38.3767 C   0  0  0  0  0  0  0  0  0  0  0  0
   84.5761   83.6582  -38.8974 O   0  0  0  0  0  0  0  0  0  0  0  0
   84.1507   84.5039  -35.8423 Cl  0  0  0  0  0  0  0  0  0  0  0  0
   84.2122   85.4395  -37.3566 C   0  0  0  0  0  0  0  0  0  0  0  0
 11 12  1  0  0  0
 12  9  1  0  0  0
  9 10  2  0  0  0
  9  1  1  0  0  0
  1  2  2  0  0  0
  2  3  1  0  0  0
  3  4  2  0  0  0
  4  5  1  0  0  0
  4  6  1  0  0  0
  6  7  2  0  0  0
  7  8  1  0  0  0
  7  1  1  0  0  0
M  END
> <minimizedAffinity>
-4.68262

> <newdefault_CNNaffinity>
3.6786

> <newdefault_CNNscore>
0.553239

> <CNNaffinity_times_score>
2.035145

> <protein>
5o1i

$$$$
144206820


 27 29  0  0  0  0  0  0  0  0999 V2000
   98.5450   95.9947  -28.3481 C   0  0  0  0  0  0  0  0  0  0  0  0
   98.8318   97.1624  -27.4444 C   0  0  0  0  0  0  0  0  0  0  0  0
   97.6146   97.4994  -26.8568 O   0  0  0  0  0  0  0  0  0  0  0  0
   96.6226   96.8361  -27.6108 C   0  0  0  0  0  0  0  0  0  0  0  0
   97.1884   96.0759  -28.6559 O   0  0  0  0  0  0  0  0  0  0  0  0
  100.8887   96.1268  -31.8818 C   0  0  0  0  0  0  0  0  0  0  0  0
  100.9708   95.0670  -31.0388 N   0  0  0  0  0  0  0  0  0  0  0  0
  100.2358   95.0045  -29.8975 C   0  0  0  0  0  0  0  0  0  0  0  0
  100.3513   93.9927  -29.1558 O   0  0  0  0  0  0  0  0  0  0  0  0
   99.3777   96.0285  -29.5680 N   0  0  0  0  0  0  0  0  0  0  0  0
   99.2387   97.0832  -30.4267 C   0  0  0  0  0  0  0  0  0  0  0  0
   99.9830   97.1508  -31.6017 C   0  0  0  0  0  0  0  0  0  0  0  0
  103.4014   97.8191  -32.2440 C   0  0  0  0  0  0  0  0  0  0  0  0
  102.7784   96.9975  -33.3352 C   0  0  0  0  0  0  0  0  0  0  0  0
  103.2901   97.0255  -34.4867 O   0  0  0  0  0  0  0  0  0  0  0  0
  101.6628   96.1265  -33.0886 N   0  0  0  0  0  0  0  0  0  0  0  0
  101.4135   95.4873  -33.7947 H   0  0  0  0  0  0  0  0  0  0  0  0
   95.6470   97.8578  -28.1884 C   0  0  0  0  0  0  0  0  0  0  0  0
   95.6197   97.7446  -29.6115 O   0  0  0  0  0  0  0  0  0  0  0  0
   94.6293   98.3109  -30.4259 C   0  0  0  0  0  0  0  0  0  0  0  0
   93.4224   98.3124  -30.0556 O   0  0  0  0  0  0  0  0  0  0  0  0
   95.0014   98.8976  -31.7328 C   0  0  0  0  0  0  0  0  0  0  0  0
   96.1205   98.4116  -32.4350 C   0  0  0  0  0  0  0  0  0  0  0  0
   96.4751   98.9655  -33.6697 C   0  0  0  0  0  0  0  0  0  0  0  0
   95.7218  100.0086  -34.2126 C   0  0  0  0  0  0  0  0  0  0  0  0
   94.6069  100.4965  -33.5262 C   0  0  0  0  0  0  0  0  0  0  0  0
   94.2464   99.9460  -32.2927 C   0  0  0  0  0  0  0  0  0  0  0  0
 13 14  1  0  0  0
 14 15  2  0  0  0
 14 16  1  0  0  0
 16  6  1  0  0  0
  6  7  2  0  0  0
  7  8  1  0  0  0
  8  9  2  0  0  0
  8 10  1  0  0  0
 10 11  1  0  0  0
 11 12  2  0  0  0
  1 10  1  0  0  0
  1  2  1  0  0  0
  2  3  1  0  0  0
  3  4  1  0  0  0
  4 18  1  0  0  0
 18 19  1  0  0  0
 19 20  1  0  0  0
 20 21  2  0  0  0
 20 22  1  0  0  0
 22 23  2  0  0  0
 23 24  1  0  0  0
 24 25  2  0  0  0
 25 26  1  0  0  0
 26 27  2  0  0  0
  4  5  1  0  0  0
 12  6  1  0  0  0
  5  1  1  0  0  0
 27 22  1  0  0  0
 16 17  1  0  0  0
M  END
> <minimizedAffinity>
-6.98542

> <newdefault_CNNaffinity>
4.63521

> <newdefault_CNNscore>
0.465207

> <CNNaffinity_times_score>
2.1563323

> <protein>
5o1i

$$$$
144206918


 41 47  0  0  0  0  0  0  0  0999 V2000
   98.1395   99.3173  -31.9516 C   0  0  0  0  0  0  0  0  0  0  0  0
   98.7076   98.2878  -31.2147 C   0  0  0  0  0  0  0  0  0  0  0  0
  100.0264   98.1641  -31.5017 N   0  0  0  0  0  0  0  0  0  0  0  0
  100.3084   99.1436  -32.3893 C   0  0  0  0  0  0  0  0  0  0  0  0
  101.5400   99.4536  -32.9810 C   0  0  0  0  0  0  0  0  0  0  0  0
  101.5823  100.5076  -33.9103 C   0  0  0  0  0  0  0  0  0  0  0  0
  100.4094  101.2153  -34.2428 C   0  0  0  0  0  0  0  0  0  0  0  0
   99.1839  100.8874  -33.6381 C   0  0  0  0  0  0  0  0  0  0  0  0
   99.1728   99.8601  -32.6934 C   0  0  0  0  0  0  0  0  0  0  0  0
   96.0010  100.1778  -30.9455 C   0  0  0  0  0  0  0  0  0  0  0  0
   96.7104   99.6856  -31.9717 C   0  0  0  0  0  0  0  0  0  0  0  0
   95.8579   99.7494  -33.1639 C   0  0  0  0  0  0  0  0  0  0  0  0
   96.1953   99.4208  -34.3293 O   0  0  0  0  0  0  0  0  0  0  0  0
   94.5871  100.2932  -32.8471 N   0  0  0  0  0  0  0  0  0  0  0  0
   94.6869  100.5660  -31.4592 C   0  0  0  0  0  0  0  0  0  0  0  0
   93.7584  101.0857  -30.7860 O   0  0  0  0  0  0  0  0  0  0  0  0
   93.8206  100.4448  -33.4461 H   0  0  0  0  0  0  0  0  0  0  0  0
   97.9296  102.3080  -26.8220 C   0  0  0  0  0  0  0  0  0  0  0  0
   97.3205  101.3269  -27.7157 N   0  0  0  0  0  0  0  0  0  0  0  0
   97.0162  101.5117  -29.0220 C   0  0  0  0  0  0  0  0  0  0  0  0
   96.4502  100.3568  -29.5517 C   0  0  0  0  0  0  0  0  0  0  0  0
   96.3985   99.4483  -28.5054 C   0  0  0  0  0  0  0  0  0  0  0  0
   95.8769   98.1553  -28.4264 C   0  0  0  0  0  0  0  0  0  0  0  0
   95.9731   97.4781  -27.1972 C   0  0  0  0  0  0  0  0  0  0  0  0
   96.5533   98.1085  -26.0761 C   0  0  0  0  0  0  0  0  0  0  0  0
   97.0457   99.4219  -26.1741 C   0  0  0  0  0  0  0  0  0  0  0  0
   96.9435  100.0705  -27.4082 C   0  0  0  0  0  0  0  0  0  0  0  0
  100.9424   97.1788  -30.9040 C   0  0  0  0  0  0  0  0  0  0  0  0
  101.3525   97.6443  -29.4993 C   0  0  0  0  0  0  0  0  0  0  0  0
  102.2599   96.5981  -28.8308 C   0  0  0  0  0  0  0  0  0  0  0  0
  101.7415   95.1947  -28.9010 N   0  0  0  0  0  0  0  0  0  0  0  0
  100.3915   95.0889  -29.5083 C   0  0  0  0  0  0  0  0  0  0  0  0
  100.3095   95.7618  -30.8901 C   0  0  0  0  0  0  0  0  0  0  0  0
  101.6499   94.8970  -27.9297 H   0  0  0  0  0  0  0  0  0  0  0  0
  102.6931   94.2847  -29.5859 C   0  0  0  0  0  0  0  0  0  0  0  0
  104.0547   94.9148  -29.7503 C   0  0  0  0  0  0  0  0  0  0  0  0
  104.3955   95.5870  -30.9342 C   0  0  0  0  0  0  0  0  0  0  0  0
  105.6621   96.1609  -31.0545 C   0  0  0  0  0  0  0  0  0  0  0  0
  106.5743   96.0603  -30.0031 C   0  0  0  0  0  0  0  0  0  0  0  0
  106.2061   95.3740  -28.8434 C   0  0  0  0  0  0  0  0  0  0  0  0
  104.9679   94.8216  -28.7433 N   0  0  0  0  0  0  0  0  0  0  0  0
 18 19  1  0  0  0
 19 20  1  0  0  0
 20 21  2  0  0  0
 21 10  1  0  0  0
 10 11  2  0  0  0
 11 12  1  0  0  0
 12 13  2  0  0  0
 12 14  1  0  0  0
 14 15  1  0  0  0
 15 16  2  0  0  0
 11  1  1  0  0  0
  1  2  2  0  0  0
  2  3  1  0  0  0
  3 28  1  0  0  0
 28 29  1  0  0  0
 29 30  1  0  0  0
 30 31  1  0  0  0
 31 35  1  0  0  0
 35 36  1  0  0  0
 36 37  2  0  0  0
 37 38  1  0  0  0
 38 39  2  0  0  0
 39 40  1  0  0  0
 40 41  2  0  0  0
 31 32  1  0  0  0
 32 33  1  0  0  0
  3  4  1  0  0  0
  4  5  2  0  0  0
  5  6  1  0  0  0
  6  7  2  0  0  0
  7  8  1  0  0  0
  8  9  2  0  0  0
 21 22  1  0  0  0
 22 23  2  0  0  0
 23 24  1  0  0  0
 24 25  2  0  0  0
 25 26  1  0  0  0
 26 27  2  0  0  0
 27 19  1  0  0  0
 15 10  1  0  0  0
  9  1  1  0  0  0
 33 28  1  0  0  0
 41 36  1  0  0  0
  9  4  1  0  0  0
 27 22  1  0  0  0
 14 17  1  0  0  0
 31 34  1  0  0  0
M  CHG 1  31   1
M  END
> <minimizedAffinity>
-7.19679

> <newdefault_CNNaffinity>
6.2321

> <newdefault_CNNscore>
0.339327

> <CNNaffinity_times_score>
2.1147199

> <protein>
4agq

$$$$
144206969


 25 27  0  0  0  0  0  0  0  0999 V2000
   96.2055  100.1123  -30.1696 N   0  0  0  0  0  0  0  0  0  0  0  0
   96.7476   98.9852  -29.4811 C   0  0  0  0  0  0  0  0  0  0  0  0
   96.0908   98.4400  -28.4136 N   0  0  0  0  0  0  0  0  0  0  0  0
   96.5921   97.3516  -27.7448 C   0  0  0  0  0  0  0  0  0  0  0  0
   95.9117   96.8364  -26.6931 F   0  0  0  0  0  0  0  0  0  0  0  0
   97.7724   96.7818  -28.1345 N   0  0  0  0  0  0  0  0  0  0  0  0
   98.4236   97.3295  -29.1891 C   0  0  0  0  0  0  0  0  0  0  0  0
   97.9478   98.3988  -29.8663 C   0  0  0  0  0  0  0  0  0  0  0  0
   98.7685   98.7165  -30.8853 N   0  0  0  0  0  0  0  0  0  0  0  0
   99.7552   97.7837  -30.7779 C   0  0  0  0  0  0  0  0  0  0  0  0
   99.5742   96.9247  -29.7397 N   0  0  0  0  0  0  0  0  0  0  0  0
   95.3532  100.5065  -29.8739 H   0  0  0  0  0  0  0  0  0  0  0  0
   96.6840  100.4953  -30.9400 H   0  0  0  0  0  0  0  0  0  0  0  0
  100.3791   95.7562  -29.3749 C   0  0  0  0  0  0  0  0  0  0  0  0
  101.7116   96.1337  -29.1208 O   0  0  0  0  0  0  0  0  0  0  0  0
  102.5248   95.0219  -29.4335 C   0  0  0  0  0  0  0  0  0  0  0  0
  101.7012   93.9986  -30.2400 C   0  0  0  0  0  0  0  0  0  0  0  0
  101.5227   92.8016  -29.5187 O   0  0  0  0  0  0  0  0  0  0  0  0
  100.3822   94.7016  -30.4770 C   0  0  0  0  0  0  0  0  0  0  0  0
  100.3922   95.2977  -31.7507 O   0  0  0  0  0  0  0  0  0  0  0  0
  101.0871   92.9951  -28.6739 H   0  0  0  0  0  0  0  0  0  0  0  0
  101.1574   95.8892  -31.8249 H   0  0  0  0  0  0  0  0  0  0  0  0
  103.7721   95.4958  -30.1947 C   0  0  0  0  0  0  0  0  0  0  0  0
  103.9599   94.7542  -31.3710 O   0  0  0  0  0  0  0  0  0  0  0  0
  104.0835   93.8185  -31.1470 H   0  0  0  0  0  0  0  0  0  0  0  0
  1  2  1  0  0  0
  2  3  2  0  0  0
  3  4  1  0  0  0
  4  5  1  0  0  0
  4  6  2  0  0  0
  6  7  1  0  0  0
  7  8  2  0  0  0
  8  9  1  0  0  0
  9 10  2  0  0  0
 10 11  1  0  0  0
 14 11  1  0  0  0
 14 15  1  0  0  0
 15 16  1  0  0  0
 16 23  1  0  0  0
 23 24  1  0  0  0
 16 17  1  0  0  0
 17 18  1  0  0  0
 17 19  1  0  0  0
 19 20  1  0  0  0
  8  2  1  0  0  0
 11  7  1  0  0  0
 19 14  1  0  0  0
  1 12  1  0  0  0
  1 13  1  0  0  0
 24 25  1  0  0  0
 18 21  1  0  0  0
 20 22  1  0  0  0
M  END
> <minimizedAffinity>
-6.16959

> <newdefault_CNNaffinity>
4.12136

> <newdefault_CNNscore>
0.62801

> <CNNaffinity_times_score>
2.5882552

> <protein>
5g4o

$$$$
144207010


 12 12  0  0  0  0  0  0  0  0999 V2000
   92.0739   93.6409  -43.0071 C   0  0  0  0  0  0  0  0  0  0  0  0
   91.9980   93.1178  -44.3088 C   0  0  0  0  0  0  0  0  0  0  0  0
   91.3589   93.8323  -45.3248 C   0  0  0  0  0  0  0  0  0  0  0  0
   90.7977   95.0826  -45.0554 C   0  0  0  0  0  0  0  0  0  0  0  0
   89.9978   95.9793  -46.3334 Cl  0  0  0  0  0  0  0  0  0  0  0  0
   90.8855   95.6243  -43.7699 C   0  0  0  0  0  0  0  0  0  0  0  0
   91.5240   94.9162  -42.7438 C   0  0  0  0  0  0  0  0  0  0  0  0
   91.6840   95.6991  -41.1743 Cl  0  0  0  0  0  0  0  0  0  0  0  0
   92.7466   92.8431  -41.9607 C   0  0  0  0  0  0  0  0  0  0  0  0
   92.2057   91.7794  -41.5543 O   0  0  0  0  0  0  0  0  0  0  0  0
   95.2854   92.0469  -41.5511 Cl  0  0  0  0  0  0  0  0  0  0  0  0
   94.0325   93.2940  -41.3345 C   0  0  0  0  0  0  0  0  0  0  0  0
 11 12  1  0  0  0
 12  9  1  0  0  0
  9 10  2  0  0  0
  9  1  1  0  0  0
  1  2  2  0  0  0
  2  3  1  0  0  0
  3  4  2  0  0  0
  4  5  1  0  0  0
  4  6  1  0  0  0
  6  7  2  0  0  0
  7  8  1  0  0  0
  7  1  1  0  0  0
M  END
> <minimizedAffinity>
-5.75265

> <newdefault_CNNaffinity>
4.11645

> <newdefault_CNNscore>
0.697987

> <CNNaffinity_times_score>
2.8732285

> <protein>
5g4o

$$$$
144207274


 23 26  0  0  0  0  0  0  0  0999 V2000
   99.8747  100.9700  -34.1756 Cl  0  0  0  0  0  0  0  0  0  0  0  0
   99.8471   99.8778  -32.8055 C   0  0  0  0  0  0  0  0  0  0  0  0
   98.7694   99.8981  -31.9196 C   0  0  0  0  0  0  0  0  0  0  0  0
   98.7399   99.0216  -30.8354 C   0  0  0  0  0  0  0  0  0  0  0  0
   99.7905   98.1164  -30.6166 C   0  0  0  0  0  0  0  0  0  0  0  0
   99.7297   97.2276  -29.4826 N   0  0  0  0  0  0  0  0  0  0  0  0
   99.8984   95.8081  -29.6612 C   0  0  0  0  0  0  0  0  0  0  0  0
   99.5539   95.0088  -28.7490 O   0  0  0  0  0  0  0  0  0  0  0  0
  100.5341   95.2717  -30.9054 C   0  0  0  0  0  0  0  0  0  0  0  0
  101.8401   95.8982  -31.0796 N   0  0  0  0  0  0  0  0  0  0  0  0
  102.0369   97.1642  -31.3251 C   0  0  0  0  0  0  0  0  0  0  0  0
  100.8889   98.0971  -31.5126 C   0  0  0  0  0  0  0  0  0  0  0  0
  100.8963   98.9787  -32.6066 C   0  0  0  0  0  0  0  0  0  0  0  0
  103.4348   97.6619  -31.4247 C   0  0  0  0  0  0  0  0  0  0  0  0
  104.1984   97.4250  -32.5854 C   0  0  0  0  0  0  0  0  0  0  0  0
  105.5228   97.8664  -32.6659 C   0  0  0  0  0  0  0  0  0  0  0  0
  106.0994   98.5515  -31.5956 C   0  0  0  0  0  0  0  0  0  0  0  0
  105.3585   98.7815  -30.4342 C   0  0  0  0  0  0  0  0  0  0  0  0
  104.0364   98.3378  -30.3452 C   0  0  0  0  0  0  0  0  0  0  0  0
   99.6380   97.7890  -28.1285 C   0  0  0  0  0  0  0  0  0  0  0  0
  100.9357   98.5368  -27.7909 C   0  0  0  0  0  0  0  0  0  0  0  0
  100.7432   99.7705  -26.9215 C   0  0  0  0  0  0  0  0  0  0  0  0
  101.3707   98.5177  -26.3342 C   0  0  0  0  0  0  0  0  0  0  0  0
  1  2  1  0  0  0
  2  3  2  0  0  0
  3  4  1  0  0  0
  4  5  2  0  0  0
  5  6  1  0  0  0
  6 20  1  0  0  0
 20 21  1  0  0  0
 21 22  1  0  0  0
 22 23  1  0  0  0
  6  7  1  0  0  0
  7  8  2  0  0  0
  7  9  1  0  0  0
  9 10  1  0  0  0
 10 11  2  0  0  0
 11 14  1  0  0  0
 14 15  2  0  0  0
 15 16  1  0  0  0
 16 17  2  0  0  0
 17 18  1  0  0  0
 18 19  2  0  0  0
 11 12  1  0  0  0
 12 13  2  0  0  0
 13  2  1  0  0  0
 12  5  1  0  0  0
 23 21  1  0  0  0
 19 14  1  0  0  0
M  END
> <minimizedAffinity>
-4.25939

> <newdefault_CNNaffinity>
5.0176

> <newdefault_CNNscore>
0.525489

> <CNNaffinity_times_score>
2.6366935

> <protein>
4agq

$$$$
144207456


 22 23  0  0  0  0  0  0  0  0999 V2000
  133.5461  101.8247  -29.9427 C   0  0  0  0  0  0  0  0  0  0  0  0
  134.2079  103.1917  -29.6723 C   0  0  0  0  0  0  0  0  0  0  0  0
  135.4681  103.3563  -30.4639 N   0  0  0  0  0  0  0  0  0  0  0  0
  136.6685  103.0807  -29.6326 C   0  0  0  0  0  0  0  0  0  0  0  0
  137.9315  103.1730  -30.4484 C   0  0  0  0  0  0  0  0  0  0  0  0
  138.9708  102.5696  -30.0712 O   0  0  0  0  0  0  0  0  0  0  0  0
  137.9592  103.9689  -31.6354 N   0  0  0  0  0  0  0  0  0  0  0  0
  136.8003  104.7108  -32.0165 C   0  0  0  0  0  0  0  0  0  0  0  0
  136.8212  105.4304  -33.0502 O   0  0  0  0  0  0  0  0  0  0  0  0
  135.5788  104.6726  -31.1428 C   0  0  0  0  0  0  0  0  0  0  0  0
  135.4200  102.6598  -31.2075 H   0  0  0  0  0  0  0  0  0  0  0  0
  138.7735  104.0053  -32.1875 H   0  0  0  0  0  0  0  0  0  0  0  0
  133.1766  104.3333  -29.8843 C   0  0  0  0  0  0  0  0  0  0  0  0
  132.8174  104.9516  -28.5847 N   0  0  0  0  0  0  0  0  0  0  0  0
  131.4380  105.4862  -28.5713 C   0  0  0  0  0  0  0  0  0  0  0  0
  131.3169  106.7103  -29.4342 C   0  0  0  0  0  0  0  0  0  0  0  0
  130.2389  106.9614  -30.0353 O   0  0  0  0  0  0  0  0  0  0  0  0
  132.4321  107.5927  -29.5606 N   0  0  0  0  0  0  0  0  0  0  0  0
  133.6770  107.2498  -28.9482 C   0  0  0  0  0  0  0  0  0  0  0  0
  134.6604  108.0311  -29.0416 O   0  0  0  0  0  0  0  0  0  0  0  0
  133.7996  105.9751  -28.1532 C   0  0  0  0  0  0  0  0  0  0  0  0
  132.3440  108.4325  -30.0668 H   0  0  0  0  0  0  0  0  0  0  0  0
  2  1  1  0  0  0
  2 13  1  0  0  0
 13 14  1  0  0  0
 14 15  1  0  0  0
 15 16  1  0  0  0
 16 17  2  0  0  0
 16 18  1  0  0  0
 18 19  1  0  0  0
 19 20  2  0  0  0
 19 21  1  0  0  0
  2  3  1  0  0  0
  3  4  1  0  0  0
  4  5  1  0  0  0
  5  6  2  0  0  0
  5  7  1  0  0  0
  7  8  1  0  0  0
  8  9  2  0  0  0
  8 10  1  0  0  0
 21 14  1  0  0  0
 10  3  1  0  0  0
 18 22  1  0  0  0
  3 11  1  0  0  0
  7 12  1  0  0  0
M  CHG 1   3   1
M  END
> <minimizedAffinity>
-5.74415

> <newdefault_CNNaffinity>
4.06191

> <newdefault_CNNscore>
0.743657

> <CNNaffinity_times_score>
3.0206678

> <protein>
2vuk

$$$$
144208165


 22 23  0  0  0  0  0  0  0  0999 V2000
  133.4339  106.1120  -29.3150 C   0  0  0  0  0  0  0  0  0  0  0  0
  133.5146  105.2530  -30.4341 O   0  0  0  0  0  0  0  0  0  0  0  0
  134.4531  104.2360  -30.1476 C   0  0  0  0  0  0  0  0  0  0  0  0
  135.2051  104.6020  -28.8638 C   0  0  0  0  0  0  0  0  0  0  0  0
  136.4243  105.2483  -29.1545 O   0  0  0  0  0  0  0  0  0  0  0  0
  134.2325  105.5152  -28.1595 C   0  0  0  0  0  0  0  0  0  0  0  0
  134.8939  106.5055  -27.4155 O   0  0  0  0  0  0  0  0  0  0  0  0
  136.2522  106.0350  -29.6953 H   0  0  0  0  0  0  0  0  0  0  0  0
  135.4755  107.0154  -28.0009 H   0  0  0  0  0  0  0  0  0  0  0  0
  130.2883  106.7308  -27.8103 C   0  0  0  0  0  0  0  0  0  0  0  0
  129.8403  106.5910  -29.0788 N   0  0  0  0  0  0  0  0  0  0  0  0
  130.9744  106.3231  -29.7550 C   0  0  0  0  0  0  0  0  0  0  0  0
  132.0359  106.2958  -28.9321 N   0  0  0  0  0  0  0  0  0  0  0  0
  131.6216  106.5635  -27.7072 N   0  0  0  0  0  0  0  0  0  0  0  0
  128.2958  106.2203  -26.3556 N   0  0  0  0  0  0  0  0  0  0  0  0
  129.4211  107.0432  -26.6661 C   0  0  0  0  0  0  0  0  0  0  0  0
  129.6723  108.0486  -25.9497 O   0  0  0  0  0  0  0  0  0  0  0  0
  127.7225  106.4404  -25.5862 H   0  0  0  0  0  0  0  0  0  0  0  0
  128.0935  105.4330  -26.9111 H   0  0  0  0  0  0  0  0  0  0  0  0
  133.7230  102.8902  -30.0132 C   0  0  0  0  0  0  0  0  0  0  0  0
  134.6399  101.8592  -29.7626 O   0  0  0  0  0  0  0  0  0  0  0  0
  135.2680  101.7990  -30.4993 H   0  0  0  0  0  0  0  0  0  0  0  0
 15 16  1  0  0  0
 16 17  2  0  0  0
 16 10  1  0  0  0
 10 11  1  0  0  0
 11 12  2  0  0  0
 12 13  1  0  0  0
 13 14  1  0  0  0
  1 13  1  0  0  0
  1  2  1  0  0  0
  2  3  1  0  0  0
  3 20  1  0  0  0
 20 21  1  0  0  0
  3  4  1  0  0  0
  4  5  1  0  0  0
  4  6  1  0  0  0
  6  7  1  0  0  0
 14 10  2  0  0  0
  6  1  1  0  0  0
 15 18  1  0  0  0
 15 19  1  0  0  0
 21 22  1  0  0  0
  5  8  1  0  0  0
  7  9  1  0  0  0
M  END
> <minimizedAffinity>
-4.87879

> <newdefault_CNNaffinity>
3.67635

> <newdefault_CNNscore>
0.771455

> <CNNaffinity_times_score>
2.8361387

> <protein>
2vuk

$$$$
144208184


 18 20  0  0  0  0  0  0  0  0999 V2000
  103.0596   96.1101  -28.7793 O   0  0  0  0  0  0  0  0  0  0  0  0
  101.7629   95.7571  -29.1386 C   0  0  0  0  0  0  0  0  0  0  0  0
  101.5820   94.6456  -29.9660 C   0  0  0  0  0  0  0  0  0  0  0  0
  100.3021   94.2552  -30.3514 C   0  0  0  0  0  0  0  0  0  0  0  0
   99.1909   94.9730  -29.9128 C   0  0  0  0  0  0  0  0  0  0  0  0
   99.3486   96.0955  -29.0793 C   0  0  0  0  0  0  0  0  0  0  0  0
   98.1617   96.8510  -28.6190 C   0  0  0  0  0  0  0  0  0  0  0  0
   97.0075   96.4856  -28.9763 O   0  0  0  0  0  0  0  0  0  0  0  0
   98.3212   98.0328  -27.7418 C   0  0  0  0  0  0  0  0  0  0  0  0
   97.1893   98.7469  -27.3076 C   0  0  0  0  0  0  0  0  0  0  0  0
   97.3290   99.8609  -26.4816 C   0  0  0  0  0  0  0  0  0  0  0  0
   98.5955  100.2767  -26.0786 C   0  0  0  0  0  0  0  0  0  0  0  0
   99.7338   99.5829  -26.4975 C   0  0  0  0  0  0  0  0  0  0  0  0
  100.9781  100.0345  -26.0702 O   0  0  0  0  0  0  0  0  0  0  0  0
   99.6103   98.4488  -27.3370 C   0  0  0  0  0  0  0  0  0  0  0  0
  100.8033   97.6874  -27.8010 C   0  0  0  0  0  0  0  0  0  0  0  0
  101.9562   98.0525  -27.4441 O   0  0  0  0  0  0  0  0  0  0  0  0
  100.6449   96.4981  -28.6836 C   0  0  0  0  0  0  0  0  0  0  0  0
  1  2  1  0  0  0
  2  3  2  0  0  0
  3  4  1  0  0  0
  4  5  2  0  0  0
  5  6  1  0  0  0
  6  7  1  0  0  0
  7  8  2  0  0  0
  7  9  1  0  0  0
  9 10  2  0  0  0
 10 11  1  0  0  0
 11 12  2  0  0  0
 12 13  1  0  0  0
 13 14  1  0  0  0
 13 15  2  0  0  0
 15 16  1  0  0  0
 16 17  2  0  0  0
 16 18  1  0  0  0
 18  2  1  0  0  0
 18  6  2  0  0  0
 15  9  1  0  0  0
M  CHG 1   1  -1
M  CHG 1  14  -1
M  END
> <minimizedAffinity>
-5.68642

> <newdefault_CNNaffinity>
3.64938

> <newdefault_CNNscore>
0.524543

> <CNNaffinity_times_score>
1.9142567

> <protein>
4ago

$$$$
144208296


 21 23  0  0  0  0  0  0  0  0999 V2000
   94.5842  101.0405  -33.2742 C   0  0  0  0  0  0  0  0  0  0  0  0
   93.5670  100.7030  -32.3726 C   0  0  0  0  0  0  0  0  0  0  0  0
   93.8337   99.9020  -31.2597 C   0  0  0  0  0  0  0  0  0  0  0  0
   92.7844   99.5991  -30.3981 O   0  0  0  0  0  0  0  0  0  0  0  0
   95.1408   99.4162  -31.0238 C   0  0  0  0  0  0  0  0  0  0  0  0
   95.4541   98.5601  -29.8454 C   0  0  0  0  0  0  0  0  0  0  0  0
   94.5399   98.2552  -29.0325 O   0  0  0  0  0  0  0  0  0  0  0  0
   96.8392   98.0615  -29.6199 C   0  0  0  0  0  0  0  0  0  0  0  0
   97.1632   97.2465  -28.5078 C   0  0  0  0  0  0  0  0  0  0  0  0
   96.1984   96.8763  -27.5766 O   0  0  0  0  0  0  0  0  0  0  0  0
   98.4725   96.7943  -28.3235 C   0  0  0  0  0  0  0  0  0  0  0  0
   99.4712   97.1398  -29.2304 C   0  0  0  0  0  0  0  0  0  0  0  0
   99.1695   97.9411  -30.3301 C   0  0  0  0  0  0  0  0  0  0  0  0
   97.8584   98.4080  -30.5360 C   0  0  0  0  0  0  0  0  0  0  0  0
   97.5484   99.2585  -31.7073 C   0  0  0  0  0  0  0  0  0  0  0  0
   98.4643   99.5633  -32.5205 O   0  0  0  0  0  0  0  0  0  0  0  0
   96.1700   99.7534  -31.9298 C   0  0  0  0  0  0  0  0  0  0  0  0
   95.8830  100.5614  -33.0454 C   0  0  0  0  0  0  0  0  0  0  0  0
   93.1711  102.7184  -34.4567 O   0  0  0  0  0  0  0  0  0  0  0  0
   94.2878  101.8903  -34.4497 C   0  0  0  0  0  0  0  0  0  0  0  0
   95.0420  101.8751  -35.4587 O   0  0  0  0  0  0  0  0  0  0  0  0
 19 20  1  0  0  0
 20 21  2  0  0  0
 20  1  1  0  0  0
  1  2  2  0  0  0
  2  3  1  0  0  0
  3  4  1  0  0  0
  3  5  2  0  0  0
  5  6  1  0  0  0
  6  7  2  0  0  0
  6  8  1  0  0  0
  8  9  2  0  0  0
  9 10  1  0  0  0
  9 11  1  0  0  0
 11 12  2  0  0  0
 12 13  1  0  0  0
 13 14  2  0  0  0
 14 15  1  0  0  0
 15 16  2  0  0  0
 15 17  1  0  0  0
 17 18  2  0  0  0
 18  1  1  0  0  0
 17  5  1  0  0  0
 14  8  1  0  0  0
M  CHG 1   4  -1
M  CHG 1  10  -1
M  CHG 1  19  -1
M  END
> <minimizedAffinity>
-6.38527

> <newdefault_CNNaffinity>
3.92782

> <newdefault_CNNscore>
0.506228

> <CNNaffinity_times_score>
1.9883726

> <protein>
4agq

$$$$
144208370


 15 14  0  0  0  0  0  0  0  0999 V2000
   85.8654   84.8186  -38.6455 C   0  0  0  0  0  0  0  0  0  0  0  0
   86.7178   84.6955  -37.6663 N   0  0  0  0  0  0  0  0  0  0  0  0
   84.5387   84.2767  -38.5525 N   0  0  0  0  0  0  0  0  0  0  0  0
   83.9107   84.3808  -39.3035 H   0  0  0  0  0  0  0  0  0  0  0  0
   84.2572   83.8011  -37.7378 H   0  0  0  0  0  0  0  0  0  0  0  0
   86.4206   84.1809  -36.3921 N   0  0  0  0  0  0  0  0  0  0  0  0
   85.3130   84.4046  -35.8608 O   0  0  0  0  0  0  0  0  0  0  0  0
   87.4553   83.7449  -35.6000 O   0  0  0  0  0  0  0  0  0  0  0  0
   86.2899   85.4574  -39.8667 N   0  0  0  0  0  0  0  0  0  0  0  0
   86.0732   84.8538  -41.1198 N   0  0  0  0  0  0  0  0  0  0  0  0
   85.2395   83.9372  -41.2732 O   0  0  0  0  0  0  0  0  0  0  0  0
   87.0385   86.7156  -39.8326 C   0  0  0  0  0  0  0  0  0  0  0  0
   88.2959   86.6100  -40.7008 C   0  0  0  0  0  0  0  0  0  0  0  0
   90.7711   87.0295  -40.4474 C   0  0  0  0  0  0  0  0  0  0  0  0
   89.5403   86.3618  -39.8410 C   0  0  0  0  0  0  0  0  0  0  0  0
 14 15  1  0  0  0
 15 13  1  0  0  0
 13 12  1  0  0  0
 12  9  1  0  0  0
  9 10  1  0  0  0
 10 11  2  0  0  0
  9  1  1  0  0  0
  1  2  2  0  0  0
  2  6  1  0  0  0
  6  7  2  0  0  0
  6  8  1  0  0  0
  1  3  1  0  0  0
  3  4  1  0  0  0
  3  5  1  0  0  0
M  CHG 1   6   1
M  CHG 1   8  -1
M  END
> <minimizedAffinity>
-4.73187

> <newdefault_CNNaffinity>
4.12805

> <newdefault_CNNscore>
0.607748

> <CNNaffinity_times_score>
2.5088139

> <protein>
5o1i

$$$$
144208385


  6  5  0  0  0  0  0  0  0  0999 V2000
  105.8652   81.6396  -39.1701 C   0  0  0  0  0  0  0  0  0  0  0  0
  104.2405   81.3693  -38.1490 Br  0  0  0  0  0  0  0  0  0  0  0  0
  106.7976   79.9403  -39.2753 Br  0  0  0  0  0  0  0  0  0  0  0  0
  106.9693   82.9182  -38.2138 Br  0  0  0  0  0  0  0  0  0  0  0  0
  106.7561   83.4904  -41.2268 Br  0  0  0  0  0  0  0  0  0  0  0  0
  105.5023   82.1578  -40.5654 C   0  0  0  0  0  0  0  0  0  0  0  0
  5  6  1  0  0  0
  6  1  1  0  0  0
  1  2  1  0  0  0
  1  3  1  0  0  0
  1  4  1  0  0  0
M  END
> <minimizedAffinity>
-3.02207

> <newdefault_CNNaffinity>
3.26659

> <newdefault_CNNscore>
0.618659

> <CNNaffinity_times_score>
2.0209055

> <protein>
5g4o

$$$$
144208407


 12 12  0  0  0  0  0  0  0  0999 V2000
  104.9211   80.9524  -41.8783 O   0  0  0  0  0  0  0  0  0  0  0  0
  105.0010   82.1513  -41.1536 C   0  0  0  0  0  0  0  0  0  0  0  0
  105.6585   83.1603  -41.9183 O   0  0  0  0  0  0  0  0  0  0  0  0
  106.7916   83.5613  -41.2381 C   0  0  0  0  0  0  0  0  0  0  0  0
  107.5892   84.4415  -41.6538 O   0  0  0  0  0  0  0  0  0  0  0  0
  106.9162   82.8288  -40.0010 C   0  0  0  0  0  0  0  0  0  0  0  0
  105.8765   81.9970  -39.9302 C   0  0  0  0  0  0  0  0  0  0  0  0
  108.2091   83.0245  -38.8264 Cl  0  0  0  0  0  0  0  0  0  0  0  0
  104.3546   81.0813  -42.6552 H   0  0  0  0  0  0  0  0  0  0  0  0
  105.5790   81.0394  -38.8100 C   0  0  0  0  0  0  0  0  0  0  0  0
  105.4722   81.8961  -37.2505 Cl  0  0  0  0  0  0  0  0  0  0  0  0
  106.8186   79.7619  -38.7202 Cl  0  0  0  0  0  0  0  0  0  0  0  0
  2  1  1  0  0  0
  2  3  1  0  0  0
  3  4  1  0  0  0
  4  5  2  0  0  0
  4  6  1  0  0  0
  6  7  2  0  0  0
  7 10  1  0  0  0
 10 11  1  0  0  0
 10 12  1  0  0  0
  6  8  1  0  0  0
  7  2  1  0  0  0
  1  9  1  0  0  0
M  END
> <minimizedAffinity>
-4.81149

> <newdefault_CNNaffinity>
3.54982

> <newdefault_CNNscore>
0.609814

> <CNNaffinity_times_score>
2.1647298

> <protein>
5g4o

$$$$
144208429


 22 23  0  0  0  0  0  0  0  0999 V2000
   99.9702   95.8492  -28.8545 C   0  0  0  0  0  0  0  0  0  0  0  0
   99.8393   94.4401  -28.8858 O   0  0  0  0  0  0  0  0  0  0  0  0
   99.9840   94.0247  -30.2252 C   0  0  0  0  0  0  0  0  0  0  0  0
  100.6930   95.1283  -30.9969 C   0  0  0  0  0  0  0  0  0  0  0  0
  100.3116   95.1244  -32.3485 O   0  0  0  0  0  0  0  0  0  0  0  0
  100.2342   96.3683  -30.2728 C   0  0  0  0  0  0  0  0  0  0  0  0
   99.0454   96.8595  -30.8400 O   0  0  0  0  0  0  0  0  0  0  0  0
   99.3475   95.2096  -32.4127 H   0  0  0  0  0  0  0  0  0  0  0  0
   98.3693   96.1641  -30.8263 H   0  0  0  0  0  0  0  0  0  0  0  0
  104.2922   97.3006  -25.5472 N   0  0  0  0  0  0  0  0  0  0  0  0
  103.1929   96.9307  -26.3794 C   0  0  0  0  0  0  0  0  0  0  0  0
  102.0904   97.7182  -26.4387 N   0  0  0  0  0  0  0  0  0  0  0  0
  101.0353   97.3828  -27.2238 C   0  0  0  0  0  0  0  0  0  0  0  0
  100.0323   98.1452  -27.2680 O   0  0  0  0  0  0  0  0  0  0  0  0
  101.0761   96.2272  -27.9599 N   0  0  0  0  0  0  0  0  0  0  0  0
  102.1678   95.4561  -27.9201 N   0  0  0  0  0  0  0  0  0  0  0  0
  103.2356   95.7678  -27.1445 C   0  0  0  0  0  0  0  0  0  0  0  0
  104.2485   98.1254  -25.0116 H   0  0  0  0  0  0  0  0  0  0  0  0
  105.0941   96.7307  -25.5089 H   0  0  0  0  0  0  0  0  0  0  0  0
  100.7317   92.6883  -30.2881 C   0  0  0  0  0  0  0  0  0  0  0  0
  102.0587   92.8478  -29.8662 O   0  0  0  0  0  0  0  0  0  0  0  0
  102.5088   93.4810  -30.4470 H   0  0  0  0  0  0  0  0  0  0  0  0
 10 11  1  0  0  0
 11 12  2  0  0  0
 12 13  1  0  0  0
 13 14  2  0  0  0
 13 15  1  0  0  0
 15 16  1  0  0  0
 16 17  2  0  0  0
  1 15  1  0  0  0
  1  2  1  0  0  0
  2  3  1  0  0  0
  3 20  1  0  0  0
 20 21  1  0  0  0
  3  4  1  0  0  0
  4  5  1  0  0  0
  4  6  1  0  0  0
  6  7  1  0  0  0
 17 11  1  0  0  0
  6  1  1  0  0  0
 10 18  1  0  0  0
 10 19  1  0  0  0
 21 22  1  0  0  0
  5  8  1  0  0  0
  7  9  1  0  0  0
M  END
> <minimizedAffinity>
-6.22009

> <newdefault_CNNaffinity>
3.49023

> <newdefault_CNNscore>
0.603236

> <CNNaffinity_times_score>
2.1054325

> <protein>
5o1i

$$$$
144208588


 19 19  0  0  0  0  0  0  0  0999 V2000
   98.1980   97.7635  -27.2163 C   0  0  0  0  0  0  0  0  0  0  0  0
   99.4424   98.2622  -26.7972 C   0  0  0  0  0  0  0  0  0  0  0  0
  100.6237   97.8529  -27.4205 C   0  0  0  0  0  0  0  0  0  0  0  0
  100.5860   96.9324  -28.4772 C   0  0  0  0  0  0  0  0  0  0  0  0
   99.3482   96.4272  -28.9001 C   0  0  0  0  0  0  0  0  0  0  0  0
   98.1647   96.8364  -28.2790 C   0  0  0  0  0  0  0  0  0  0  0  0
   96.9584   98.2520  -26.4909 C   0  0  0  0  0  0  0  0  0  0  0  0
   95.6169   97.8492  -27.1299 C   0  0  0  0  0  0  0  0  0  0  0  0
   94.9935   98.9943  -27.9395 C   0  0  0  0  0  0  0  0  0  0  0  0
   95.9908   98.7901  -30.2243 O   0  0  0  0  0  0  0  0  0  0  0  0
   94.8857   98.6523  -29.3941 C   0  0  0  0  0  0  0  0  0  0  0  0
   93.8035   98.2124  -29.8640 O   0  0  0  0  0  0  0  0  0  0  0  0
  101.8050   96.5084  -29.1183 N   0  0  0  0  0  0  0  0  0  0  0  0
  103.0969   97.0280  -28.6462 C   0  0  0  0  0  0  0  0  0  0  0  0
  103.6374   96.1597  -27.5127 C   0  0  0  0  0  0  0  0  0  0  0  0
  105.1775   95.4066  -27.9967 Cl  0  0  0  0  0  0  0  0  0  0  0  0
  101.7500   95.5659  -30.2468 C   0  0  0  0  0  0  0  0  0  0  0  0
  101.9962   94.1321  -29.7765 C   0  0  0  0  0  0  0  0  0  0  0  0
  100.6066   93.0861  -30.1708 Cl  0  0  0  0  0  0  0  0  0  0  0  0
 10 11  1  0  0  0
 11 12  2  0  0  0
 11  9  1  0  0  0
  9  8  1  0  0  0
  8  7  1  0  0  0
  7  1  1  0  0  0
  1  2  2  0  0  0
  2  3  1  0  0  0
  3  4  2  0  0  0
  4  5  1  0  0  0
  5  6  2  0  0  0
  4 13  1  0  0  0
 13 14  1  0  0  0
 14 15  1  0  0  0
 15 16  1  0  0  0
 13 17  1  0  0  0
 17 18  1  0  0  0
 18 19  1  0  0  0
  6  1  1  0  0  0
M  CHG 1  10  -1
M  END
> <minimizedAffinity>
-4.51553

> <newdefault_CNNaffinity>
4.38097

> <newdefault_CNNscore>
0.469117

> <CNNaffinity_times_score>
2.0551875

> <protein>
4agq

$$$$
144208765


 17 19  0  0  0  0  0  0  0  0999 V2000
  102.3450   93.1197  -30.1623 N   0  0  0  0  0  0  0  0  0  0  0  0
  101.7748   94.2054  -29.4265 C   0  0  0  0  0  0  0  0  0  0  0  0
  102.6026   95.0851  -28.7160 C   0  0  0  0  0  0  0  0  0  0  0  0
  102.0518   96.1478  -27.9950 C   0  0  0  0  0  0  0  0  0  0  0  0
  100.6626   96.3439  -27.9760 C   0  0  0  0  0  0  0  0  0  0  0  0
  100.1035   97.4089  -27.2541 C   0  0  0  0  0  0  0  0  0  0  0  0
   98.7142   97.6007  -27.2381 C   0  0  0  0  0  0  0  0  0  0  0  0
   98.1492   98.6649  -26.5173 C   0  0  0  0  0  0  0  0  0  0  0  0
   96.7637   98.8488  -26.5068 C   0  0  0  0  0  0  0  0  0  0  0  0
   95.9330   97.9753  -27.2131 C   0  0  0  0  0  0  0  0  0  0  0  0
   96.4821   96.9117  -27.9349 C   0  0  0  0  0  0  0  0  0  0  0  0
   97.8722   96.7152  -27.9541 C   0  0  0  0  0  0  0  0  0  0  0  0
   98.4317   95.6504  -28.6758 C   0  0  0  0  0  0  0  0  0  0  0  0
   99.8213   95.4587  -28.6917 C   0  0  0  0  0  0  0  0  0  0  0  0
  100.3856   94.3943  -29.4127 C   0  0  0  0  0  0  0  0  0  0  0  0
  103.3208   92.9893  -30.1704 H   0  0  0  0  0  0  0  0  0  0  0  0
  101.7618   92.5028  -30.6608 H   0  0  0  0  0  0  0  0  0  0  0  0
  1  2  1  0  0  0
  2  3  2  0  0  0
  3  4  1  0  0  0
  4  5  2  0  0  0
  5  6  1  0  0  0
  6  7  2  0  0  0
  7  8  1  0  0  0
  8  9  2  0  0  0
  9 10  1  0  0  0
 10 11  2  0  0  0
 11 12  1  0  0  0
 12 13  2  0  0  0
 13 14  1  0  0  0
 14 15  2  0  0  0
 15  2  1  0  0  0
 14  5  1  0  0  0
 12  7  1  0  0  0
  1 16  1  0  0  0
  1 17  1  0  0  0
M  END
> <minimizedAffinity>
-6.16319

> <newdefault_CNNaffinity>
3.90525

> <newdefault_CNNscore>
0.752319

> <CNNaffinity_times_score>
2.9379938

> <protein>
5o1i

$$$$
144208858


 21 24  0  0  0  0  0  0  0  0999 V2000
   97.9334   99.2470  -29.4837 O   0  0  0  0  0  0  0  0  0  0  0  0
   98.6487   98.2543  -29.8021 C   0  0  0  0  0  0  0  0  0  0  0  0
   99.1944   98.1844  -31.0550 N   0  0  0  0  0  0  0  0  0  0  0  0
   99.9919   97.1222  -31.3839 C   0  0  0  0  0  0  0  0  0  0  0  0
  100.5208   97.0662  -32.5309 O   0  0  0  0  0  0  0  0  0  0  0  0
  100.2177   96.1180  -30.4823 N   0  0  0  0  0  0  0  0  0  0  0  0
   99.6271   96.1747  -29.2496 C   0  0  0  0  0  0  0  0  0  0  0  0
   99.7816   95.2203  -28.4348 O   0  0  0  0  0  0  0  0  0  0  0  0
   98.8681   97.2558  -28.8927 N   0  0  0  0  0  0  0  0  0  0  0  0
   98.9713   99.2747  -32.0256 C   0  0  0  0  0  0  0  0  0  0  0  0
   97.7161   98.9883  -32.8530 C   0  0  0  0  0  0  0  0  0  0  0  0
   96.6221   99.9795  -32.7559 C   0  0  0  0  0  0  0  0  0  0  0  0
   97.5089   99.9578  -33.8523 O   0  0  0  0  0  0  0  0  0  0  0  0
  101.0398   94.9510  -30.8603 C   0  0  0  0  0  0  0  0  0  0  0  0
  102.4988   95.1898  -30.4641 C   0  0  0  0  0  0  0  0  0  0  0  0
  103.1444   94.1312  -29.6570 C   0  0  0  0  0  0  0  0  0  0  0  0
  103.3658   94.2453  -31.0452 O   0  0  0  0  0  0  0  0  0  0  0  0
   98.2372   97.3124  -27.5588 C   0  0  0  0  0  0  0  0  0  0  0  0
   96.9889   96.4273  -27.5339 C   0  0  0  0  0  0  0  0  0  0  0  0
   95.8610   96.9015  -26.7022 C   0  0  0  0  0  0  0  0  0  0  0  0
   95.8733   97.0707  -28.1024 O   0  0  0  0  0  0  0  0  0  0  0  0
  1  2  2  0  0  0
  2  3  1  0  0  0
  3 10  1  0  0  0
 11 10  1  0  0  0
 11 12  1  0  0  0
 12 13  1  0  0  0
  3  4  1  0  0  0
  4  5  2  0  0  0
  4  6  1  0  0  0
  6 14  1  0  0  0
 15 14  1  0  0  0
 15 16  1  0  0  0
 16 17  1  0  0  0
  6  7  1  0  0  0
  7  8  2  0  0  0
  7  9  1  0  0  0
  9 18  1  0  0  0
 19 18  1  0  0  0
 19 20  1  0  0  0
 20 21  1  0  0  0
  9  2  1  0  0  0
 13 11  1  0  0  0
 17 15  1  0  0  0
 21 19  1  0  0  0
M  END
> <minimizedAffinity>
-4.57715

> <newdefault_CNNaffinity>
3.94603

> <newdefault_CNNscore>
0.470092

> <CNNaffinity_times_score>
1.854997

> <protein>
5o1i

$$$$
144208987


 17 18  0  0  0  0  0  0  0  0999 V2000
   99.6237   96.5604  -28.6994 C   0  0  0  0  0  0  0  0  0  0  0  0
   99.9445   97.3398  -27.5783 C   0  0  0  0  0  0  0  0  0  0  0  0
   98.9963   98.1955  -27.0118 C   0  0  0  0  0  0  0  0  0  0  0  0
   97.7029   98.2879  -27.5613 C   0  0  0  0  0  0  0  0  0  0  0  0
   96.7045   99.1355  -27.0299 C   0  0  0  0  0  0  0  0  0  0  0  0
   95.4456   99.1593  -27.6458 C   0  0  0  0  0  0  0  0  0  0  0  0
   95.2107   98.3513  -28.7604 C   0  0  0  0  0  0  0  0  0  0  0  0
   94.0831   98.3658  -29.3199 O   0  0  0  0  0  0  0  0  0  0  0  0
   96.1692   97.5658  -29.2366 O   0  0  0  0  0  0  0  0  0  0  0  0
   97.3812   97.5024  -28.6944 C   0  0  0  0  0  0  0  0  0  0  0  0
   98.3384   96.6499  -29.2540 C   0  0  0  0  0  0  0  0  0  0  0  0
   96.9540  100.0084  -25.8273 C   0  0  0  0  0  0  0  0  0  0  0  0
  100.6121   95.6917  -29.2864 N   0  0  0  0  0  0  0  0  0  0  0  0
  100.7317   93.3251  -29.9574 C   0  0  0  0  0  0  0  0  0  0  0  0
  100.2167   94.7168  -30.3120 C   0  0  0  0  0  0  0  0  0  0  0  0
  102.0139   95.7649  -28.8472 C   0  0  0  0  0  0  0  0  0  0  0  0
  102.8646   96.5074  -29.8734 C   0  0  0  0  0  0  0  0  0  0  0  0
 14 15  1  0  0  0
 15 13  1  0  0  0
 13 16  1  0  0  0
 16 17  1  0  0  0
 13  1  1  0  0  0
  1  2  2  0  0  0
  2  3  1  0  0  0
  3  4  2  0  0  0
  4  5  1  0  0  0
  5  6  2  0  0  0
  6  7  1  0  0  0
  7  8  2  0  0  0
  7  9  1  0  0  0
  9 10  1  0  0  0
 10 11  2  0  0  0
  5 12  1  0  0  0
 11  1  1  0  0  0
 10  4  1  0  0  0
M  END
> <minimizedAffinity>
-5.41743

> <newdefault_CNNaffinity>
4.65597

> <newdefault_CNNscore>
0.804393

> <CNNaffinity_times_score>
3.7452297

> <protein>
4agq

$$$$
144209077


 20 23  0  0  0  0  0  0  0  0999 V2000
   97.9168   96.8265  -28.3275 C   0  0  0  0  0  0  0  0  0  0  0  0
   98.9361   97.4811  -27.6103 C   0  0  0  0  0  0  0  0  0  0  0  0
  100.2717   97.3423  -27.9991 C   0  0  0  0  0  0  0  0  0  0  0  0
  100.6092   96.5519  -29.1080 C   0  0  0  0  0  0  0  0  0  0  0  0
   99.5925   95.9032  -29.8246 C   0  0  0  0  0  0  0  0  0  0  0  0
   98.2575   96.0411  -29.4349 C   0  0  0  0  0  0  0  0  0  0  0  0
   96.5634   96.9282  -27.9740 O   0  0  0  0  0  0  0  0  0  0  0  0
   95.9004   98.1537  -27.6602 C   0  0  0  0  0  0  0  0  0  0  0  0
   95.3851   98.8596  -28.9183 C   0  0  0  0  0  0  0  0  0  0  0  0
   94.0262   99.4428  -28.8494 C   0  0  0  0  0  0  0  0  0  0  0  0
   94.2764   98.2157  -29.5004 O   0  0  0  0  0  0  0  0  0  0  0  0
  101.9852   96.4058  -29.5049 N   0  0  0  0  0  0  0  0  0  0  0  0
  102.8365   95.4174  -28.8313 C   0  0  0  0  0  0  0  0  0  0  0  0
  104.2202   96.0149  -28.5735 C   0  0  0  0  0  0  0  0  0  0  0  0
  104.6415   96.1134  -27.1587 C   0  0  0  0  0  0  0  0  0  0  0  0
  105.1015   95.0788  -28.0003 O   0  0  0  0  0  0  0  0  0  0  0  0
  102.5230   97.2418  -30.5862 C   0  0  0  0  0  0  0  0  0  0  0  0
  102.5059   96.4613  -31.9014 C   0  0  0  0  0  0  0  0  0  0  0  0
  103.4695   96.8924  -32.9375 C   0  0  0  0  0  0  0  0  0  0  0  0
  103.7125   95.7692  -32.1199 O   0  0  0  0  0  0  0  0  0  0  0  0
  8  7  1  0  0  0
  7  1  1  0  0  0
  1  2  2  0  0  0
  2  3  1  0  0  0
  3  4  2  0  0  0
  4  5  1  0  0  0
  5  6  2  0  0  0
  4 12  1  0  0  0
 12 13  1  0  0  0
 14 13  1  0  0  0
 14 15  1  0  0  0
 15 16  1  0  0  0
 12 17  1  0  0  0
 18 17  1  0  0  0
 18 19  1  0  0  0
 19 20  1  0  0  0
  9  8  1  0  0  0
  9 10  1  0  0  0
 10 11  1  0  0  0
  6  1  1  0  0  0
 16 14  1  0  0  0
 20 18  1  0  0  0
 11  9  1  0  0  0
M  END
> <minimizedAffinity>
-4.70479

> <newdefault_CNNaffinity>
3.93937

> <newdefault_CNNscore>
0.421214

> <CNNaffinity_times_score>
1.6593179

> <protein>
4agq

$$$$
144209129


 11 11  0  0  0  0  0  0  0  0999 V2000
  106.8139   83.6223  -40.5108 O   0  0  0  0  0  0  0  0  0  0  0  0
  106.2382   82.3576  -40.5821 C   0  0  0  0  0  0  0  0  0  0  0  0
  105.9615   81.6493  -39.4057 C   0  0  0  0  0  0  0  0  0  0  0  0
  106.3351   82.3434  -37.8357 Cl  0  0  0  0  0  0  0  0  0  0  0  0
  105.3834   80.3792  -39.4754 C   0  0  0  0  0  0  0  0  0  0  0  0
  105.0780   79.8081  -40.7148 C   0  0  0  0  0  0  0  0  0  0  0  0
  104.3510   78.2066  -40.7511 Cl  0  0  0  0  0  0  0  0  0  0  0  0
  105.3528   80.5132  -41.9004 C   0  0  0  0  0  0  0  0  0  0  0  0
  104.9690   79.7960  -43.4654 Cl  0  0  0  0  0  0  0  0  0  0  0  0
  105.9354   81.7930  -41.8307 C   0  0  0  0  0  0  0  0  0  0  0  0
  106.2920   82.7018  -43.2976 Cl  0  0  0  0  0  0  0  0  0  0  0  0
  1  2  1  0  0  0
  2  3  2  0  0  0
  3  4  1  0  0  0
  3  5  1  0  0  0
  5  6  2  0  0  0
  6  7  1  0  0  0
  6  8  1  0  0  0
  8  9  1  0  0  0
  8 10  2  0  0  0
 10 11  1  0  0  0
 10  2  1  0  0  0
M  CHG 1   1  -1
M  END
> <minimizedAffinity>
-4.41034

> <newdefault_CNNaffinity>
4.38043

> <newdefault_CNNscore>
0.470595

> <CNNaffinity_times_score>
2.0614085

> <protein>
5o1i

$$$$
144209219


 25 27  0  0  0  0  0  0  0  0999 V2000
   95.8497   97.0429  -27.2837 N   0  0  0  0  0  0  0  0  0  0  0  0
   97.2207   96.7993  -27.5888 C   0  0  0  0  0  0  0  0  0  0  0  0
   98.1930   97.5365  -26.9858 N   0  0  0  0  0  0  0  0  0  0  0  0
   99.5105   97.3293  -27.2545 C   0  0  0  0  0  0  0  0  0  0  0  0
  100.4972   98.1287  -26.5974 N   0  0  0  0  0  0  0  0  0  0  0  0
   99.8721   96.3344  -28.1729 C   0  0  0  0  0  0  0  0  0  0  0  0
  101.1682   96.0834  -28.4917 N   0  0  0  0  0  0  0  0  0  0  0  0
  101.5098   95.1190  -29.3906 C   0  0  0  0  0  0  0  0  0  0  0  0
  100.4835   94.3442  -29.9842 C   0  0  0  0  0  0  0  0  0  0  0  0
  100.7679   93.2509  -30.8630 N   0  0  0  0  0  0  0  0  0  0  0  0
   99.1867   94.6091  -29.6659 N   0  0  0  0  0  0  0  0  0  0  0  0
   98.8568   95.5853  -28.7835 C   0  0  0  0  0  0  0  0  0  0  0  0
   97.5564   95.8294  -28.4812 N   0  0  0  0  0  0  0  0  0  0  0  0
   95.6063   97.7449  -26.6378 H   0  0  0  0  0  0  0  0  0  0  0  0
   95.1462   96.5091  -27.7189 H   0  0  0  0  0  0  0  0  0  0  0  0
  100.2212   98.8224  -25.9556 H   0  0  0  0  0  0  0  0  0  0  0  0
  101.4527   97.9855  -26.7868 H   0  0  0  0  0  0  0  0  0  0  0  0
  101.6994   93.0434  -31.1051 H   0  0  0  0  0  0  0  0  0  0  0  0
  100.0322   92.7063  -31.2255 H   0  0  0  0  0  0  0  0  0  0  0  0
  102.9401   94.9402  -29.7164 C   0  0  0  0  0  0  0  0  0  0  0  0
  103.4012   95.0791  -31.0374 C   0  0  0  0  0  0  0  0  0  0  0  0
  104.7627   94.9447  -31.3263 C   0  0  0  0  0  0  0  0  0  0  0  0
  105.6747   94.6869  -30.2994 C   0  0  0  0  0  0  0  0  0  0  0  0
  105.2274   94.5700  -28.9806 C   0  0  0  0  0  0  0  0  0  0  0  0
  103.8666   94.7038  -28.6873 C   0  0  0  0  0  0  0  0  0  0  0  0
  1  2  1  0  0  0
  2  3  2  0  0  0
  3  4  1  0  0  0
  4  5  1  0  0  0
  4  6  2  0  0  0
  6  7  1  0  0  0
  7  8  2  0  0  0
  8  9  1  0  0  0
  9 10  1  0  0  0
  9 11  2  0  0  0
 11 12  1  0  0  0
 12 13  2  0  0  0
  8 20  1  0  0  0
 20 21  2  0  0  0
 21 22  1  0  0  0
 22 23  2  0  0  0
 23 24  1  0  0  0
 24 25  2  0  0  0
 13  2  1  0  0  0
 12  6  1  0  0  0
 25 20  1  0  0  0
  1 14  1  0  0  0
  1 15  1  0  0  0
  5 16  1  0  0  0
  5 17  1  0  0  0
 10 18  1  0  0  0
 10 19  1  0  0  0
M  END
> <minimizedAffinity>
-5.70263

> <newdefault_CNNaffinity>
4.34792

> <newdefault_CNNscore>
0.354601

> <CNNaffinity_times_score>
1.5417768

> <protein>
3zme

$$$$
144209430


 19 20  0  0  0  0  0  0  0  0999 V2000
  101.8384   93.4318  -29.8329 N   0  0  0  0  0  0  0  0  0  0  0  0
  101.2149   94.7055  -30.0188 C   0  0  0  0  0  0  0  0  0  0  0  0
  101.8026   95.6604  -30.8540 C   0  0  0  0  0  0  0  0  0  0  0  0
  101.2008   96.9072  -31.0420 C   0  0  0  0  0  0  0  0  0  0  0  0
   99.9893   97.2267  -30.3929 C   0  0  0  0  0  0  0  0  0  0  0  0
   99.3415   98.4801  -30.5572 C   0  0  0  0  0  0  0  0  0  0  0  0
   99.8408   99.4998  -31.3732 O   0  0  0  0  0  0  0  0  0  0  0  0
   98.1421   98.7332  -29.8819 C   0  0  0  0  0  0  0  0  0  0  0  0
   97.5703   97.7725  -29.0436 C   0  0  0  0  0  0  0  0  0  0  0  0
   98.1946   96.5338  -28.8810 C   0  0  0  0  0  0  0  0  0  0  0  0
   99.3975   96.2520  -29.5439 C   0  0  0  0  0  0  0  0  0  0  0  0
  100.0142   95.0034  -29.3659 C   0  0  0  0  0  0  0  0  0  0  0  0
  102.6835   93.2254  -30.2939 H   0  0  0  0  0  0  0  0  0  0  0  0
  101.4226   92.7614  -29.2439 H   0  0  0  0  0  0  0  0  0  0  0  0
  100.6410   99.3737  -31.8440 H   0  0  0  0  0  0  0  0  0  0  0  0
   96.0558   98.1115  -28.2138 S   0  0  0  0  0  0  0  0  0  0  0  0
   96.1499   99.4324  -27.5033 O   0  0  0  0  0  0  0  0  0  0  0  0
   95.7754   97.0234  -27.2166 O   0  0  0  0  0  0  0  0  0  0  0  0
   94.7979   98.1882  -29.3252 O   0  0  0  0  0  0  0  0  0  0  0  0
  1  2  1  0  0  0
  2  3  2  0  0  0
  3  4  1  0  0  0
  4  5  2  0  0  0
  5  6  1  0  0  0
  6  7  1  0  0  0
  6  8  2  0  0  0
  8  9  1  0  0  0
  9 10  2  0  0  0
 10 11  1  0  0  0
 11 12  2  0  0  0
  9 16  1  0  0  0
 16 17  2  0  0  0
 16 18  2  0  0  0
 16 19  1  0  0  0
 12  2  1  0  0  0
 11  5  1  0  0  0
  1 13  1  0  0  0
  1 14  1  0  0  0
  7 15  1  0  0  0
M  CHG 1  19  -1
M  END
> <minimizedAffinity>
-5.92491

> <newdefault_CNNaffinity>
4.41208

> <newdefault_CNNscore>
0.745065

> <CNNaffinity_times_score>
3.287286

> <protein>
4agq

$$$$
144209535


 21 22  0  0  0  0  0  0  0  0999 V2000
  101.9718   94.4383  -29.9038 C   0  0  0  0  0  0  0  0  0  0  0  0
  101.7761   93.1550  -29.8829 N   0  0  0  0  0  0  0  0  0  0  0  0
  100.9153   92.7934  -29.5705 H   0  0  0  0  0  0  0  0  0  0  0  0
   98.7705   97.0487  -28.6204 C   0  0  0  0  0  0  0  0  0  0  0  0
  100.0982   97.2694  -28.1988 C   0  0  0  0  0  0  0  0  0  0  0  0
  101.1327   96.4268  -28.6134 C   0  0  0  0  0  0  0  0  0  0  0  0
  100.8751   95.3420  -29.4672 C   0  0  0  0  0  0  0  0  0  0  0  0
   99.5542   95.1093  -29.8822 C   0  0  0  0  0  0  0  0  0  0  0  0
   98.5180   95.9511  -29.4695 C   0  0  0  0  0  0  0  0  0  0  0  0
   97.5809   98.3404  -26.7867 C   0  0  0  0  0  0  0  0  0  0  0  0
   97.6939   97.9265  -28.1914 N   0  0  0  0  0  0  0  0  0  0  0  0
   96.7032   98.4212  -29.1565 C   0  0  0  0  0  0  0  0  0  0  0  0
  103.2722   94.9799  -30.3760 C   0  0  0  0  0  0  0  0  0  0  0  0
  103.3223   95.8860  -31.4454 C   0  0  0  0  0  0  0  0  0  0  0  0
  104.5459   96.3970  -31.8868 C   0  0  0  0  0  0  0  0  0  0  0  0
  105.7542   96.0177  -31.2660 C   0  0  0  0  0  0  0  0  0  0  0  0
  105.6932   95.1103  -30.1883 C   0  0  0  0  0  0  0  0  0  0  0  0
  104.4686   94.6004  -29.7498 C   0  0  0  0  0  0  0  0  0  0  0  0
  107.0263   96.5475  -31.7241 N   0  0  0  0  0  0  0  0  0  0  0  0
  107.0707   97.6448  -32.6986 C   0  0  0  0  0  0  0  0  0  0  0  0
  108.2900   95.9946  -31.2208 C   0  0  0  0  0  0  0  0  0  0  0  0
 10 11  1  0  0  0
 11 12  1  0  0  0
 11  4  1  0  0  0
  4  5  2  0  0  0
  5  6  1  0  0  0
  6  7  2  0  0  0
  7  8  1  0  0  0
  8  9  2  0  0  0
  7  1  1  0  0  0
  1  2  2  0  0  0
  1 13  1  0  0  0
 13 14  2  0  0  0
 14 15  1  0  0  0
 15 16  2  0  0  0
 16 17  1  0  0  0
 17 18  2  0  0  0
 16 19  1  0  0  0
 19 20  1  0  0  0
 19 21  1  0  0  0
  9  4  1  0  0  0
 18 13  1  0  0  0
  2  3  1  0  0  0
M  END
> <minimizedAffinity>
-5.46327

> <newdefault_CNNaffinity>
4.20432

> <newdefault_CNNscore>
0.557269

> <CNNaffinity_times_score>
2.342937

> <protein>
4ago

$$$$
144209614


 20 21  0  0  0  0  0  0  0  0999 V2000
   96.7726   97.5024  -28.6448 C   0  0  0  0  0  0  0  0  0  0  0  0
   96.0033   97.1489  -27.7095 O   0  0  0  0  0  0  0  0  0  0  0  0
  100.8841   96.2154  -28.6132 C   0  0  0  0  0  0  0  0  0  0  0  0
  100.4771   97.3125  -27.8351 C   0  0  0  0  0  0  0  0  0  0  0  0
   99.1442   97.7328  -27.8421 C   0  0  0  0  0  0  0  0  0  0  0  0
   98.1863   97.0549  -28.6155 C   0  0  0  0  0  0  0  0  0  0  0  0
   98.5944   95.9649  -29.4008 C   0  0  0  0  0  0  0  0  0  0  0  0
   99.9272   95.5445  -29.3938 C   0  0  0  0  0  0  0  0  0  0  0  0
  103.1891   96.2338  -27.5653 C   0  0  0  0  0  0  0  0  0  0  0  0
  102.2575   95.7724  -28.5978 N   0  0  0  0  0  0  0  0  0  0  0  0
  102.7573   94.8913  -29.6558 C   0  0  0  0  0  0  0  0  0  0  0  0
   96.2312   98.3508  -29.7343 C   0  0  0  0  0  0  0  0  0  0  0  0
   97.0827   98.8286  -30.7412 C   0  0  0  0  0  0  0  0  0  0  0  0
   96.5822   99.6154  -31.7821 C   0  0  0  0  0  0  0  0  0  0  0  0
   95.2110   99.9355  -31.8512 C   0  0  0  0  0  0  0  0  0  0  0  0
   94.3586   99.4368  -30.8450 C   0  0  0  0  0  0  0  0  0  0  0  0
   94.8618   98.6519  -29.8043 C   0  0  0  0  0  0  0  0  0  0  0  0
   94.6899  100.7522  -32.9324 N   0  0  0  0  0  0  0  0  0  0  0  0
   95.3562  100.7717  -34.2405 C   0  0  0  0  0  0  0  0  0  0  0  0
   93.4871  101.5711  -32.7366 C   0  0  0  0  0  0  0  0  0  0  0  0
  9 10  1  0  0  0
 10 11  1  0  0  0
 10  3  1  0  0  0
  3  4  2  0  0  0
  4  5  1  0  0  0
  5  6  2  0  0  0
  6  7  1  0  0  0
  7  8  2  0  0  0
  6  1  1  0  0  0
  1  2  2  0  0  0
  1 12  1  0  0  0
 12 13  2  0  0  0
 13 14  1  0  0  0
 14 15  2  0  0  0
 15 16  1  0  0  0
 16 17  2  0  0  0
 15 18  1  0  0  0
 18 19  1  0  0  0
 18 20  1  0  0  0
  8  3  1  0  0  0
 17 12  1  0  0  0
M  END
> <minimizedAffinity>
-5.56604

> <newdefault_CNNaffinity>
4.21938

> <newdefault_CNNscore>
0.676402

> <CNNaffinity_times_score>
2.853997

> <protein>
4agq

$$$$
144209720


 22 22  0  0  0  0  0  0  0  0999 V2000
  100.8782   96.3146  -29.0310 C   0  0  0  0  0  0  0  0  0  0  0  0
   99.6314   95.7031  -29.2136 C   0  0  0  0  0  0  0  0  0  0  0  0
   98.4784   96.4765  -29.3716 C   0  0  0  0  0  0  0  0  0  0  0  0
   98.5388   97.8877  -29.3462 C   0  0  0  0  0  0  0  0  0  0  0  0
   99.8024   98.4893  -29.1537 C   0  0  0  0  0  0  0  0  0  0  0  0
  100.9532   97.7126  -28.9972 C   0  0  0  0  0  0  0  0  0  0  0  0
  102.1241   95.4801  -28.8623 C   0  0  0  0  0  0  0  0  0  0  0  0
  102.0015   93.2342  -29.9247 N   0  0  0  0  0  0  0  0  0  0  0  0
  102.4256   94.6278  -30.1138 C   0  0  0  0  0  0  0  0  0  0  0  0
  101.0034   93.2078  -29.7162 H   0  0  0  0  0  0  0  0  0  0  0  0
  102.5217   92.8226  -29.1498 H   0  0  0  0  0  0  0  0  0  0  0  0
  102.1850   92.7043  -30.7768 H   0  0  0  0  0  0  0  0  0  0  0  0
  103.8980   94.6808  -30.4224 C   0  0  0  0  0  0  0  0  0  0  0  0
  104.2967   95.1201  -31.5332 O   0  0  0  0  0  0  0  0  0  0  0  0
  104.8269   94.2433  -29.4855 O   0  0  0  0  0  0  0  0  0  0  0  0
   97.3369   98.6961  -29.5123 N   0  0  0  0  0  0  0  0  0  0  0  0
   96.6132   98.7410  -30.7946 C   0  0  0  0  0  0  0  0  0  0  0  0
   97.5004   99.3199  -31.8976 C   0  0  0  0  0  0  0  0  0  0  0  0
   96.6830   99.1844  -33.4742 Cl  0  0  0  0  0  0  0  0  0  0  0  0
   96.7957   99.5035  -28.4053 C   0  0  0  0  0  0  0  0  0  0  0  0
   95.5991   98.8039  -27.7592 C   0  0  0  0  0  0  0  0  0  0  0  0
   96.1610   97.5065  -26.6760 Cl  0  0  0  0  0  0  0  0  0  0  0  0
  9  8  1  0  0  0
  9  7  1  0  0  0
  7  1  1  0  0  0
  1  2  2  0  0  0
  2  3  1  0  0  0
  3  4  2  0  0  0
  4  5  1  0  0  0
  5  6  2  0  0  0
  4 16  1  0  0  0
 16 17  1  0  0  0
 17 18  1  0  0  0
 18 19  1  0  0  0
 16 20  1  0  0  0
 20 21  1  0  0  0
 21 22  1  0  0  0
  9 13  1  0  0  0
 13 14  2  0  0  0
 13 15  1  0  0  0
  6  1  1  0  0  0
  8 10  1  0  0  0
  8 11  1  0  0  0
  8 12  1  0  0  0
M  CHG 1   8   1
M  CHG 1  15  -1
M  END
> <minimizedAffinity>
-4.92693

> <newdefault_CNNaffinity>
4.87484

> <newdefault_CNNscore>
0.728443

> <CNNaffinity_times_score>
3.551043

> <protein>
5g4o

$$$$
144209789


 12 13  0  0  0  0  0  0  0  0999 V2000
  108.0361   82.4413  -39.1846 S   0  0  0  0  0  0  0  0  0  0  0  0
  106.5593   81.9289  -39.6655 C   0  0  0  0  0  0  0  0  0  0  0  0
  106.2515   81.8585  -40.9942 N   0  0  0  0  0  0  0  0  0  0  0  0
  105.0192   81.4316  -41.4201 C   0  0  0  0  0  0  0  0  0  0  0  0
  104.0620   81.0636  -40.5142 N   0  0  0  0  0  0  0  0  0  0  0  0
  104.3665   81.1332  -39.1952 C   0  0  0  0  0  0  0  0  0  0  0  0
  103.5628   80.8162  -38.1656 N   0  0  0  0  0  0  0  0  0  0  0  0
  104.3576   81.0678  -37.0896 C   0  0  0  0  0  0  0  0  0  0  0  0
  105.5946   81.5186  -37.4184 N   0  0  0  0  0  0  0  0  0  0  0  0
  105.5760   81.5514  -38.7568 C   0  0  0  0  0  0  0  0  0  0  0  0
  103.1755   80.7563  -40.8126 H   0  0  0  0  0  0  0  0  0  0  0  0
  106.3325   81.7639  -36.8146 H   0  0  0  0  0  0  0  0  0  0  0  0
  1  2  2  0  0  0
  2  3  1  0  0  0
  3  4  2  0  0  0
  4  5  1  0  0  0
  5  6  1  0  0  0
  6  7  1  0  0  0
  7  8  2  0  0  0
  8  9  1  0  0  0
  9 10  1  0  0  0
 10  2  1  0  0  0
 10  6  2  0  0  0
  5 11  1  0  0  0
  9 12  1  0  0  0
M  END
> <minimizedAffinity>
-4.53452

> <newdefault_CNNaffinity>
3.84486

> <newdefault_CNNscore>
0.588653

> <CNNaffinity_times_score>
2.2632885

> <protein>
5o1i

$$$$
144210020


 15 14  0  0  0  0  0  0  0  0999 V2000
   90.9734   91.4146  -47.1207 C   0  0  0  0  0  0  0  0  0  0  0  0
   90.4722   91.9523  -48.4715 C   0  0  0  0  0  0  0  0  0  0  0  0
   90.2545   90.8418  -49.5159 C   0  0  0  0  0  0  0  0  0  0  0  0
   89.4255   89.6381  -49.0317 C   0  0  0  0  0  0  0  0  0  0  0  0
   89.2604   88.5516  -50.1063 C   0  0  0  0  0  0  0  0  0  0  0  0
   91.0784   87.4972  -48.9068 O   0  0  0  0  0  0  0  0  0  0  0  0
   89.9509   87.2444  -49.7016 C   0  0  0  0  0  0  0  0  0  0  0  0
   91.4976   86.6569  -48.6637 H   0  0  0  0  0  0  0  0  0  0  0  0
   91.3947   92.5332  -46.1502 C   0  0  0  0  0  0  0  0  0  0  0  0
   90.7576   93.9130  -46.4157 C   0  0  0  0  0  0  0  0  0  0  0  0
   91.3083   95.0642  -45.5555 C   0  0  0  0  0  0  0  0  0  0  0  0
   92.1094   94.5710  -44.3417 C   0  0  0  0  0  0  0  0  0  0  0  0
   91.1844   94.2901  -43.1518 C   0  0  0  0  0  0  0  0  0  0  0  0
   91.8950   94.5619  -41.8272 C   0  0  0  0  0  0  0  0  0  0  0  0
   93.2612   93.2235  -41.5176 Br  0  0  0  0  0  0  0  0  0  0  0  0
  6  7  1  0  0  0
  7  5  1  0  0  0
  5  4  1  0  0  0
  4  3  1  0  0  0
  3  2  1  0  0  0
  2  1  1  0  0  0
  1  9  1  0  0  0
  9 10  1  0  0  0
 10 11  1  0  0  0
 11 12  1  0  0  0
 12 13  1  0  0  0
 13 14  1  0  0  0
 14 15  1  0  0  0
  6  8  1  0  0  0
M  END
> <minimizedAffinity>
-4.49271

> <newdefault_CNNaffinity>
3.9514

> <newdefault_CNNscore>
0.691361

> <CNNaffinity_times_score>
2.731844

> <protein>
5g4o

$$$$
144210146


 18 19  0  0  0  0  0  0  0  0999 V2000
  118.4670   95.0098  -36.2516 C   0  0  0  0  0  0  0  0  0  0  0  0
  119.5706   94.2654  -36.4747 C   0  0  0  0  0  0  0  0  0  0  0  0
  120.0265   93.3699  -35.5106 O   0  0  0  0  0  0  0  0  0  0  0  0
  120.3274   94.3838  -37.7373 C   0  0  0  0  0  0  0  0  0  0  0  0
  121.3495   93.6673  -37.9156 O   0  0  0  0  0  0  0  0  0  0  0  0
  119.8895   95.3364  -38.7808 C   0  0  0  0  0  0  0  0  0  0  0  0
  120.5941   95.4643  -39.9909 C   0  0  0  0  0  0  0  0  0  0  0  0
  120.1651   96.3717  -40.9626 C   0  0  0  0  0  0  0  0  0  0  0  0
  119.0336   97.1574  -40.7365 C   0  0  0  0  0  0  0  0  0  0  0  0
  118.3257   97.0389  -39.5377 C   0  0  0  0  0  0  0  0  0  0  0  0
  118.7476   96.1285  -38.5523 C   0  0  0  0  0  0  0  0  0  0  0  0
  118.0111   95.9877  -37.2750 C   0  0  0  0  0  0  0  0  0  0  0  0
  116.9949   96.7011  -37.0515 O   0  0  0  0  0  0  0  0  0  0  0  0
  117.6969   94.8937  -34.9536 C   0  0  0  0  0  0  0  0  0  0  0  0
  114.8588   95.4642  -34.3098 C   0  0  0  0  0  0  0  0  0  0  0  0
  115.3154   94.1028  -34.7778 C   0  0  0  0  0  0  0  0  0  0  0  0
  116.6098   93.8529  -35.0682 C   0  0  0  0  0  0  0  0  0  0  0  0
  114.3121   92.9886  -34.9272 C   0  0  0  0  0  0  0  0  0  0  0  0
 15 16  1  0  0  0
 16 17  2  0  0  0
 17 14  1  0  0  0
 14  1  1  0  0  0
  1  2  2  0  0  0
  2  3  1  0  0  0
  2  4  1  0  0  0
  4  5  2  0  0  0
  4  6  1  0  0  0
  6  7  2  0  0  0
  7  8  1  0  0  0
  8  9  2  0  0  0
  9 10  1  0  0  0
 10 11  2  0  0  0
 11 12  1  0  0  0
 12 13  2  0  0  0
 16 18  1  0  0  0
 12  1  1  0  0  0
 11  6  1  0  0  0
M  CHG 1   3  -1
M  END
> <minimizedAffinity>
-6.23041

> <newdefault_CNNaffinity>
4.1785

> <newdefault_CNNscore>
0.532209

> <CNNaffinity_times_score>
2.2238352

> <protein>
2vuk

$$$$
144210156


 15 17  0  0  0  0  0  0  0  0999 V2000
   94.2858  102.5287  -35.7239 Br  0  0  0  0  0  0  0  0  0  0  0  0
   93.8232  101.6407  -34.0661 C   0  0  0  0  0  0  0  0  0  0  0  0
   94.6200  100.5710  -33.5840 C   0  0  0  0  0  0  0  0  0  0  0  0
   95.7617  100.1195  -34.2818 C   0  0  0  0  0  0  0  0  0  0  0  0
   96.5296   99.0635  -33.7850 C   0  0  0  0  0  0  0  0  0  0  0  0
   96.1775   98.4394  -32.5897 C   0  0  0  0  0  0  0  0  0  0  0  0
   95.0544   98.8672  -31.8824 C   0  0  0  0  0  0  0  0  0  0  0  0
   94.2715   99.9277  -32.3681 C   0  0  0  0  0  0  0  0  0  0  0  0
   93.1485  100.3459  -31.6486 C   0  0  0  0  0  0  0  0  0  0  0  0
   92.3565  101.3990  -32.1145 C   0  0  0  0  0  0  0  0  0  0  0  0
   91.2320  101.8041  -31.3762 C   0  0  0  0  0  0  0  0  0  0  0  0
   90.4326  102.8531  -31.8290 C   0  0  0  0  0  0  0  0  0  0  0  0
   90.7463  103.5068  -33.0192 C   0  0  0  0  0  0  0  0  0  0  0  0
   91.8610  103.1163  -33.7652 C   0  0  0  0  0  0  0  0  0  0  0  0
   92.6860  102.0569  -33.3279 C   0  0  0  0  0  0  0  0  0  0  0  0
  1  2  1  0  0  0
  2  3  2  0  0  0
  3  4  1  0  0  0
  4  5  2  0  0  0
  5  6  1  0  0  0
  6  7  2  0  0  0
  7  8  1  0  0  0
  8  9  2  0  0  0
  9 10  1  0  0  0
 10 11  2  0  0  0
 11 12  1  0  0  0
 12 13  2  0  0  0
 13 14  1  0  0  0
 14 15  2  0  0  0
 15  2  1  0  0  0
  8  3  1  0  0  0
 15 10  1  0  0  0
M  END
> <minimizedAffinity>
-5.09775

> <newdefault_CNNaffinity>
3.63243

> <newdefault_CNNscore>
0.52112

> <CNNaffinity_times_score>
1.892932

> <protein>
5o1i

$$$$
144210158


 15 17  0  0  0  0  0  0  0  0999 V2000
   89.0711   91.5440  -49.4506 Cl  0  0  0  0  0  0  0  0  0  0  0  0
   90.1450   91.4412  -48.0674 C   0  0  0  0  0  0  0  0  0  0  0  0
   91.1716   90.4919  -48.0502 C   0  0  0  0  0  0  0  0  0  0  0  0
   92.0309   90.4043  -46.9516 C   0  0  0  0  0  0  0  0  0  0  0  0
   91.8690   91.2689  -45.8577 C   0  0  0  0  0  0  0  0  0  0  0  0
   92.7276   91.1869  -44.7516 C   0  0  0  0  0  0  0  0  0  0  0  0
   92.5615   92.0534  -43.6611 C   0  0  0  0  0  0  0  0  0  0  0  0
   93.4179   91.9757  -42.5512 C   0  0  0  0  0  0  0  0  0  0  0  0
   93.2454   92.8428  -41.4687 C   0  0  0  0  0  0  0  0  0  0  0  0
   92.2201   93.7918  -41.4846 C   0  0  0  0  0  0  0  0  0  0  0  0
   91.3602   93.8802  -42.5829 C   0  0  0  0  0  0  0  0  0  0  0  0
   91.5220   93.0154  -43.6770 C   0  0  0  0  0  0  0  0  0  0  0  0
   90.6635   93.0973  -44.7833 C   0  0  0  0  0  0  0  0  0  0  0  0
   90.8298   92.2308  -45.8739 C   0  0  0  0  0  0  0  0  0  0  0  0
   89.9731   92.3087  -46.9835 C   0  0  0  0  0  0  0  0  0  0  0  0
  1  2  1  0  0  0
  2  3  2  0  0  0
  3  4  1  0  0  0
  4  5  2  0  0  0
  5  6  1  0  0  0
  6  7  2  0  0  0
  7  8  1  0  0  0
  8  9  2  0  0  0
  9 10  1  0  0  0
 10 11  2  0  0  0
 11 12  1  0  0  0
 12 13  2  0  0  0
 13 14  1  0  0  0
 14 15  2  0  0  0
 15  2  1  0  0  0
 14  5  1  0  0  0
 12  7  1  0  0  0
M  END
> <minimizedAffinity>
-7.39551

> <newdefault_CNNaffinity>
3.84049

> <newdefault_CNNscore>
0.721866

> <CNNaffinity_times_score>
2.7723193

> <protein>
3zme

$$$$
144210161


 16 18  0  0  0  0  0  0  0  0999 V2000
   91.0745   96.5031  -43.0248 C   0  0  0  0  0  0  0  0  0  0  0  0
   91.2002   95.3637  -43.8613 C   0  0  0  0  0  0  0  0  0  0  0  0
   91.7988   94.1664  -43.4067 C   0  0  0  0  0  0  0  0  0  0  0  0
   91.9095   93.0597  -44.2517 C   0  0  0  0  0  0  0  0  0  0  0  0
   91.4291   93.1227  -45.5586 C   0  0  0  0  0  0  0  0  0  0  0  0
   90.8344   94.2931  -46.0299 C   0  0  0  0  0  0  0  0  0  0  0  0
   90.7150   95.4154  -45.1935 C   0  0  0  0  0  0  0  0  0  0  0  0
   90.1168   96.5825  -45.6789 C   0  0  0  0  0  0  0  0  0  0  0  0
   89.9882   97.7107  -44.8625 C   0  0  0  0  0  0  0  0  0  0  0  0
   89.3840   98.8732  -45.3694 C   0  0  0  0  0  0  0  0  0  0  0  0
   89.2493  100.0055  -44.5660 C   0  0  0  0  0  0  0  0  0  0  0  0
   89.7147   99.9901  -43.2522 C   0  0  0  0  0  0  0  0  0  0  0  0
   90.3180   98.8425  -42.7322 C   0  0  0  0  0  0  0  0  0  0  0  0
   90.4658   97.6826  -43.5267 C   0  0  0  0  0  0  0  0  0  0  0  0
   91.9596   96.4296  -40.5719 N   0  0  0  0  0  0  0  0  0  0  0  0
   91.5669   96.4623  -41.6602 C   0  0  0  0  0  0  0  0  0  0  0  0
 15 16  3  0  0  0
 16  1  1  0  0  0
  1  2  2  0  0  0
  2  3  1  0  0  0
  3  4  2  0  0  0
  4  5  1  0  0  0
  5  6  2  0  0  0
  6  7  1  0  0  0
  7  8  2  0  0  0
  8  9  1  0  0  0
  9 10  2  0  0  0
 10 11  1  0  0  0
 11 12  2  0  0  0
 12 13  1  0  0  0
 13 14  2  0  0  0
 14  1  1  0  0  0
  7  2  1  0  0  0
 14  9  1  0  0  0
M  END
> <minimizedAffinity>
-6.14959

> <newdefault_CNNaffinity>
3.85118

> <newdefault_CNNscore>
0.651092

> <CNNaffinity_times_score>
2.5074725

> <protein>
4ago

$$$$
144210531


 45 49  0  0  0  0  0  0  0  0999 V2000
   99.2561   96.7073  -30.0943 N   0  0  0  0  0  0  0  0  0  0  0  0
   97.8471   96.8078  -29.7678 C   0  0  0  0  0  0  0  0  0  0  0  0
   97.3471   96.0766  -28.8646 O   0  0  0  0  0  0  0  0  0  0  0  0
   96.9541   97.7967  -30.4481 C   0  0  0  0  0  0  0  0  0  0  0  0
   97.4409   98.0154  -31.7988 N   0  0  0  0  0  0  0  0  0  0  0  0
   98.8319   98.2056  -32.0471 C   0  0  0  0  0  0  0  0  0  0  0  0
   99.1735   98.9422  -33.0119 O   0  0  0  0  0  0  0  0  0  0  0  0
   99.8929   97.5562  -31.1526 C   0  0  0  0  0  0  0  0  0  0  0  0
  100.7323   98.6873  -30.4754 C   0  0  0  0  0  0  0  0  0  0  0  0
  102.2536   98.5104  -30.6471 C   0  0  0  0  0  0  0  0  0  0  0  0
  102.6683   98.3895  -32.0686 N   0  0  0  0  0  0  0  0  0  0  0  0
  101.8100   97.4746  -32.8827 C   0  0  0  0  0  0  0  0  0  0  0  0
  100.7936   96.6623  -32.0614 C   0  0  0  0  0  0  0  0  0  0  0  0
   96.8046   98.0324  -32.5498 H   0  0  0  0  0  0  0  0  0  0  0  0
  103.5867   97.9461  -32.0559 H   0  0  0  0  0  0  0  0  0  0  0  0
   96.8976   99.1412  -29.6682 C   0  0  0  0  0  0  0  0  0  0  0  0
   97.4487   98.9840  -28.3828 O   0  0  0  0  0  0  0  0  0  0  0  0
   96.9223   98.3416  -27.8817 H   0  0  0  0  0  0  0  0  0  0  0  0
   95.4488   99.6922  -29.5386 C   0  0  0  0  0  0  0  0  0  0  0  0
   95.0188  100.5633  -30.7609 C   0  0  0  0  0  0  0  0  0  0  0  0
   94.0905   99.8115  -31.7256 C   0  0  0  0  0  0  0  0  0  0  0  0
   92.8026   99.3378  -31.0235 C   0  0  0  0  0  0  0  0  0  0  0  0
   93.0115   98.9677  -29.5400 C   0  0  0  0  0  0  0  0  0  0  0  0
   94.4530   98.5346  -29.2601 C   0  0  0  0  0  0  0  0  0  0  0  0
  100.0787   95.8507  -29.2134 C   0  0  0  0  0  0  0  0  0  0  0  0
  100.1106   94.4072  -29.7340 C   0  0  0  0  0  0  0  0  0  0  0  0
  102.5393   94.8781  -29.2432 C   0  0  0  0  0  0  0  0  0  0  0  0
  101.5167   93.8082  -29.6120 C   0  0  0  0  0  0  0  0  0  0  0  0
  102.7916   99.7305  -32.6975 C   0  0  0  0  0  0  0  0  0  0  0  0
  103.9530   99.7956  -33.6679 C   0  0  0  0  0  0  0  0  0  0  0  0
  105.0059   98.8705  -33.5844 C   0  0  0  0  0  0  0  0  0  0  0  0
  106.0999   98.9627  -34.4470 C   0  0  0  0  0  0  0  0  0  0  0  0
  106.1465   99.9588  -35.4311 C   0  0  0  0  0  0  0  0  0  0  0  0
  105.0901  100.8842  -35.5224 C   0  0  0  0  0  0  0  0  0  0  0  0
  103.9996  100.7987  -34.6500 C   0  0  0  0  0  0  0  0  0  0  0  0
  107.2814  100.0373  -36.2531 O   0  0  0  0  0  0  0  0  0  0  0  0
  107.4164   99.4557  -37.5216 C   0  0  0  0  0  0  0  0  0  0  0  0
  108.0779   98.2287  -37.6292 C   0  0  0  0  0  0  0  0  0  0  0  0
  108.2219   97.6070  -38.8734 C   0  0  0  0  0  0  0  0  0  0  0  0
  107.6907   98.1992  -40.0328 C   0  0  0  0  0  0  0  0  0  0  0  0
  107.0081   99.4230  -39.9198 C   0  0  0  0  0  0  0  0  0  0  0  0
  106.8646  100.0415  -38.6740 C   0  0  0  0  0  0  0  0  0  0  0  0
  107.8456   97.5486  -41.3541 C   0  0  0  0  0  0  0  0  0  0  0  0
  107.9154   96.2932  -41.4451 O   0  0  0  0  0  0  0  0  0  0  0  0
  107.8944   98.3124  -42.5139 O   0  0  0  0  0  0  0  0  0  0  0  0
 27 28  1  0  0  0
 28 26  1  0  0  0
 26 25  1  0  0  0
 25  1  1  0  0  0
  1  2  1  0  0  0
  2  3  2  0  0  0
  2  4  1  0  0  0
  4  5  1  0  0  0
  5  6  1  0  0  0
  6  7  2  0  0  0
  6  8  1  0  0  0
  8  9  1  0  0  0
  9 10  1  0  0  0
 10 11  1  0  0  0
 11 29  1  0  0  0
 29 30  1  0  0  0
 30 31  2  0  0  0
 31 32  1  0  0  0
 32 33  2  0  0  0
 33 36  1  0  0  0
 36 37  1  0  0  0
 37 38  2  0  0  0
 38 39  1  0  0  0
 39 40  2  0  0  0
 40 41  1  0  0  0
 41 42  2  0  0  0
 40 43  1  0  0  0
 43 44  2  0  0  0
 43 45  1  0  0  0
 33 34  1  0  0  0
 34 35  2  0  0  0
 11 12  1  0  0  0
 12 13  1  0  0  0
  4 16  1  0  0  0
 16 17  1  0  0  0
 16 19  1  0  0  0
 19 20  1  0  0  0
 20 21  1  0  0  0
 21 22  1  0  0  0
 22 23  1  0  0  0
 23 24  1  0  0  0
  8  1  1  0  0  0
 13  8  1  0  0  0
 35 30  1  0  0  0
 42 37  1  0  0  0
 24 19  1  0  0  0
  5 14  1  0  0  0
 11 15  1  0  0  0
 17 18  1  0  0  0
M  CHG 1  11   1
M  CHG 1  45  -1
M  END
> <minimizedAffinity>
-6.54123

> <newdefault_CNNaffinity>
5.43481

> <newdefault_CNNscore>
0.316327

> <CNNaffinity_times_score>
1.7191772

> <protein>
3zme

$$$$
144210806


 22 23  0  0  0  0  0  0  0  0999 V2000
  100.0467   95.8747  -29.3003 C   0  0  0  0  0  0  0  0  0  0  0  0
  101.4053   96.0607  -28.9831 O   0  0  0  0  0  0  0  0  0  0  0  0
  102.0451   94.8094  -29.1339 C   0  0  0  0  0  0  0  0  0  0  0  0
  101.1303   93.8535  -29.9218 C   0  0  0  0  0  0  0  0  0  0  0  0
  100.7268   92.7937  -29.0917 O   0  0  0  0  0  0  0  0  0  0  0  0
   99.9394   94.7183  -30.2894 C   0  0  0  0  0  0  0  0  0  0  0  0
  100.0070   95.1491  -31.6294 O   0  0  0  0  0  0  0  0  0  0  0  0
  100.2898   93.1496  -28.3023 H   0  0  0  0  0  0  0  0  0  0  0  0
  100.8376   95.6291  -31.7731 H   0  0  0  0  0  0  0  0  0  0  0  0
   97.7862  100.6966  -31.2492 N   0  0  0  0  0  0  0  0  0  0  0  0
   98.3594   99.4829  -30.7628 C   0  0  0  0  0  0  0  0  0  0  0  0
   97.5722   98.5572  -30.1608 N   0  0  0  0  0  0  0  0  0  0  0  0
   98.0807   97.3901  -29.6857 C   0  0  0  0  0  0  0  0  0  0  0  0
   97.3001   96.5770  -29.1222 O   0  0  0  0  0  0  0  0  0  0  0  0
   99.4234   97.1143  -29.8172 N   0  0  0  0  0  0  0  0  0  0  0  0
  100.2396   98.0427  -30.4045 C   0  0  0  0  0  0  0  0  0  0  0  0
   99.7243   99.2407  -30.8935 C   0  0  0  0  0  0  0  0  0  0  0  0
   96.8199  100.8582  -31.1519 H   0  0  0  0  0  0  0  0  0  0  0  0
   98.3571  101.3719  -31.6819 H   0  0  0  0  0  0  0  0  0  0  0  0
  103.3958   95.0089  -29.8354 C   0  0  0  0  0  0  0  0  0  0  0  0
  104.1061   93.8007  -29.8828 O   0  0  0  0  0  0  0  0  0  0  0  0
  104.2695   93.4861  -28.9799 H   0  0  0  0  0  0  0  0  0  0  0  0
 10 11  1  0  0  0
 11 12  2  0  0  0
 12 13  1  0  0  0
 13 14  2  0  0  0
 13 15  1  0  0  0
 15 16  1  0  0  0
 16 17  2  0  0  0
  1 15  1  0  0  0
  1  2  1  0  0  0
  2  3  1  0  0  0
  3 20  1  0  0  0
 20 21  1  0  0  0
  3  4  1  0  0  0
  4  5  1  0  0  0
  4  6  1  0  0  0
  6  7  1  0  0  0
 17 11  1  0  0  0
  6  1  1  0  0  0
 10 18  1  0  0  0
 10 19  1  0  0  0
 21 22  1  0  0  0
  5  8  1  0  0  0
  7  9  1  0  0  0
M  END
> <minimizedAffinity>
-5.68454

> <newdefault_CNNaffinity>
3.89722

> <newdefault_CNNscore>
0.803629

> <CNNaffinity_times_score>
3.131919

> <protein>
4agq

$$$$
144210913


 23 25  0  0  0  0  0  0  0  0999 V2000
  129.2004  109.3410  -29.9864 N   0  0  0  0  0  0  0  0  0  0  0  0
  129.6112  108.1791  -29.2657 C   0  0  0  0  0  0  0  0  0  0  0  0
  128.9113  107.7561  -28.1706 N   0  0  0  0  0  0  0  0  0  0  0  0
  129.2857  106.6366  -27.4709 C   0  0  0  0  0  0  0  0  0  0  0  0
  128.3554  106.1311  -26.0777 Cl  0  0  0  0  0  0  0  0  0  0  0  0
  130.3790  105.9114  -27.8561 N   0  0  0  0  0  0  0  0  0  0  0  0
  131.0741  106.3383  -28.9380 C   0  0  0  0  0  0  0  0  0  0  0  0
  130.7223  107.4353  -29.6462 C   0  0  0  0  0  0  0  0  0  0  0  0
  131.5558  107.6123  -30.6889 N   0  0  0  0  0  0  0  0  0  0  0  0
  132.4203  106.5673  -30.5625 C   0  0  0  0  0  0  0  0  0  0  0  0
  132.1561  105.7762  -29.4893 N   0  0  0  0  0  0  0  0  0  0  0  0
  128.4091  109.8479  -29.6932 H   0  0  0  0  0  0  0  0  0  0  0  0
  129.7086  109.6353  -30.7767 H   0  0  0  0  0  0  0  0  0  0  0  0
  132.8100  104.5235  -29.1087 C   0  0  0  0  0  0  0  0  0  0  0  0
  132.8998  103.5821  -30.2962 C   0  0  0  0  0  0  0  0  0  0  0  0
  134.1720  102.8337  -30.0310 C   0  0  0  0  0  0  0  0  0  0  0  0
  133.8918  101.6811  -29.2789 O   0  0  0  0  0  0  0  0  0  0  0  0
  134.9844  103.8312  -29.1982 C   0  0  0  0  0  0  0  0  0  0  0  0
  134.1093  104.7795  -28.6229 O   0  0  0  0  0  0  0  0  0  0  0  0
  133.4292  101.9314  -28.4639 H   0  0  0  0  0  0  0  0  0  0  0  0
  136.0283  104.5608  -30.0573 C   0  0  0  0  0  0  0  0  0  0  0  0
  136.1987  103.9049  -31.2847 O   0  0  0  0  0  0  0  0  0  0  0  0
  136.5069  102.9988  -31.1270 H   0  0  0  0  0  0  0  0  0  0  0  0
  1  2  1  0  0  0
  2  3  2  0  0  0
  3  4  1  0  0  0
  4  5  1  0  0  0
  4  6  2  0  0  0
  6  7  1  0  0  0
  7  8  2  0  0  0
  8  9  1  0  0  0
  9 10  2  0  0  0
 10 11  1  0  0  0
 14 11  1  0  0  0
 14 15  1  0  0  0
 15 16  1  0  0  0
 16 17  1  0  0  0
 16 18  1  0  0  0
 18 21  1  0  0  0
 21 22  1  0  0  0
 18 19  1  0  0  0
  8  2  1  0  0  0
 11  7  1  0  0  0
 19 14  1  0  0  0
  1 12  1  0  0  0
  1 13  1  0  0  0
 17 20  1  0  0  0
 22 23  1  0  0  0
M  END
> <minimizedAffinity>
-6.17834

> <newdefault_CNNaffinity>
4.21575

> <newdefault_CNNscore>
0.656791

> <CNNaffinity_times_score>
2.7688668

> <protein>
2vuk

$$$$
144211060


 17 17  0  0  0  0  0  0  0  0999 V2000
  129.1562  107.3650  -29.2793 C   0  0  0  0  0  0  0  0  0  0  0  0
  127.7679  107.6486  -29.2783 C   0  0  0  0  0  0  0  0  0  0  0  0
  127.1290  108.2233  -30.3859 C   0  0  0  0  0  0  0  0  0  0  0  0
  127.8826  108.5328  -31.5230 C   0  0  0  0  0  0  0  0  0  0  0  0
  129.2600  108.2792  -31.5700 C   0  0  0  0  0  0  0  0  0  0  0  0
  129.8918  107.6863  -30.4550 C   0  0  0  0  0  0  0  0  0  0  0  0
  131.2507  107.4039  -30.5312 O   0  0  0  0  0  0  0  0  0  0  0  0
  130.7919  107.7494  -27.3723 C   0  0  0  0  0  0  0  0  0  0  0  0
  129.8510  106.7231  -28.0450 C   0  0  0  0  0  0  0  0  0  0  0  0
  128.8496  106.2545  -26.9571 C   0  0  0  0  0  0  0  0  0  0  0  0
  130.6565  105.4762  -28.4774 C   0  0  0  0  0  0  0  0  0  0  0  0
  130.0054  108.6231  -32.7574 N   0  0  0  0  0  0  0  0  0  0  0  0
  129.8889  107.9400  -33.7961 O   0  0  0  0  0  0  0  0  0  0  0  0
  130.7997  109.7459  -32.7977 O   0  0  0  0  0  0  0  0  0  0  0  0
  125.7138  108.4954  -30.3511 N   0  0  0  0  0  0  0  0  0  0  0  0
  125.1814  109.2154  -31.2214 O   0  0  0  0  0  0  0  0  0  0  0  0
  124.9210  107.9654  -29.3585 O   0  0  0  0  0  0  0  0  0  0  0  0
  8  9  1  0  0  0
  9 10  1  0  0  0
  9 11  1  0  0  0
  9  1  1  0  0  0
  1  2  2  0  0  0
  2  3  1  0  0  0
  3  4  2  0  0  0
  4  5  1  0  0  0
  5  6  2  0  0  0
  6  7  1  0  0  0
  5 12  1  0  0  0
 12 13  2  0  0  0
 12 14  1  0  0  0
  3 15  1  0  0  0
 15 16  2  0  0  0
 15 17  1  0  0  0
  6  1  1  0  0  0
M  CHG 1   7  -1
M  CHG 1  12   1
M  CHG 1  14  -1
M  CHG 1  15   1
M  CHG 1  17  -1
M  END
> <minimizedAffinity>
-4.60060

> <newdefault_CNNaffinity>
3.96141

> <newdefault_CNNscore>
0.376001

> <CNNaffinity_times_score>
1.4894941

> <protein>
2vuk

$$$$
144211366


 19 21  0  0  0  0  0  0  0  0999 V2000
   98.5621   97.9479  -26.8236 F   0  0  0  0  0  0  0  0  0  0  0  0
   98.1901   97.3619  -28.0189 C   0  0  0  0  0  0  0  0  0  0  0  0
   97.0763   96.5638  -27.8379 F   0  0  0  0  0  0  0  0  0  0  0  0
   97.9257   98.3680  -29.0046 O   0  0  0  0  0  0  0  0  0  0  0  0
   98.8117   98.1826  -30.0487 C   0  0  0  0  0  0  0  0  0  0  0  0
   98.9201   98.9146  -31.2262 C   0  0  0  0  0  0  0  0  0  0  0  0
   99.9062   98.5280  -32.1494 C   0  0  0  0  0  0  0  0  0  0  0  0
  100.7492   97.4286  -31.8761 C   0  0  0  0  0  0  0  0  0  0  0  0
  100.6125   96.6980  -30.6726 C   0  0  0  0  0  0  0  0  0  0  0  0
   99.6207   97.1233  -29.7797 C   0  0  0  0  0  0  0  0  0  0  0  0
   99.2735   96.5894  -28.5516 O   0  0  0  0  0  0  0  0  0  0  0  0
  101.4906   95.5484  -30.3564 C   0  0  0  0  0  0  0  0  0  0  0  0
  101.1043   94.2196  -30.2896 C   0  0  0  0  0  0  0  0  0  0  0  0
  102.1636   93.4457  -29.9865 N   0  0  0  0  0  0  0  0  0  0  0  0
  103.2313   94.2544  -29.8620 C   0  0  0  0  0  0  0  0  0  0  0  0
  102.8509   95.5615  -30.0806 C   0  0  0  0  0  0  0  0  0  0  0  0
  102.1577   92.4674  -29.8762 H   0  0  0  0  0  0  0  0  0  0  0  0
  103.7419   96.6913  -30.1093 C   0  0  0  0  0  0  0  0  0  0  0  0
  104.4582   97.5999  -30.1318 N   0  0  0  0  0  0  0  0  0  0  0  0
  1  2  1  0  0  0
  2  3  1  0  0  0
  2  4  1  0  0  0
  4  5  1  0  0  0
  5  6  2  0  0  0
  6  7  1  0  0  0
  7  8  2  0  0  0
  8  9  1  0  0  0
  9 10  2  0  0  0
 10 11  1  0  0  0
  9 12  1  0  0  0
 12 13  2  0  0  0
 13 14  1  0  0  0
 14 15  1  0  0  0
 15 16  2  0  0  0
 16 18  1  0  0  0
 18 19  3  0  0  0
 11  2  1  0  0  0
 10  5  1  0  0  0
 16 12  1  0  0  0
 14 17  1  0  0  0
M  END
> <minimizedAffinity>
-5.44728

> <newdefault_CNNaffinity>
4.24431

> <newdefault_CNNscore>
0.46832

> <CNNaffinity_times_score>
1.9876952

> <protein>
5g4o

$$$$
144211385


 14 15  0  0  0  0  0  0  0  0999 V2000
  100.3668   98.2722  -26.6736 C   0  0  0  0  0  0  0  0  0  0  0  0
   99.5770   97.2775  -27.4843 C   0  0  0  0  0  0  0  0  0  0  0  0
   98.1782   97.3652  -27.5049 C   0  0  0  0  0  0  0  0  0  0  0  0
   97.4426   96.4451  -28.2551 C   0  0  0  0  0  0  0  0  0  0  0  0
   96.1861   96.5163  -28.2793 O   0  0  0  0  0  0  0  0  0  0  0  0
   98.0590   95.4928  -28.9453 O   0  0  0  0  0  0  0  0  0  0  0  0
   99.3816   95.3611  -28.9633 C   0  0  0  0  0  0  0  0  0  0  0  0
   99.9586   94.3317  -29.7149 C   0  0  0  0  0  0  0  0  0  0  0  0
  101.3468   94.1743  -29.7485 C   0  0  0  0  0  0  0  0  0  0  0  0
  101.9031   93.1435  -30.5026 O   0  0  0  0  0  0  0  0  0  0  0  0
  102.1652   95.0514  -29.0260 C   0  0  0  0  0  0  0  0  0  0  0  0
  101.6013   96.0838  -28.2710 C   0  0  0  0  0  0  0  0  0  0  0  0
  100.2026   96.2524  -28.2296 C   0  0  0  0  0  0  0  0  0  0  0  0
  101.3474   92.5616  -30.9827 H   0  0  0  0  0  0  0  0  0  0  0  0
  1  2  1  0  0  0
  2  3  2  0  0  0
  3  4  1  0  0  0
  4  5  2  0  0  0
  4  6  1  0  0  0
  6  7  1  0  0  0
  7  8  2  0  0  0
  8  9  1  0  0  0
  9 10  1  0  0  0
  9 11  2  0  0  0
 11 12  1  0  0  0
 12 13  2  0  0  0
 13  2  1  0  0  0
 13  7  1  0  0  0
 10 14  1  0  0  0
M  END
> <minimizedAffinity>
-5.29002

> <newdefault_CNNaffinity>
3.96113

> <newdefault_CNNscore>
0.682064

> <CNNaffinity_times_score>
2.701744

> <protein>
3zme

$$$$
144211487


 23 24  0  0  0  0  0  0  0  0999 V2000
   96.2606   98.6273  -30.2801 N   0  0  0  0  0  0  0  0  0  0  0  0
   95.1727   98.7847  -31.2028 C   0  0  0  0  0  0  0  0  0  0  0  0
   94.0201   98.3745  -30.8980 O   0  0  0  0  0  0  0  0  0  0  0  0
   95.3844   99.4295  -32.4679 N   0  0  0  0  0  0  0  0  0  0  0  0
   96.4206   99.2695  -33.3359 C   0  0  0  0  0  0  0  0  0  0  0  0
   96.3244  100.0527  -34.4437 N   0  0  0  0  0  0  0  0  0  0  0  0
   95.1776  100.7255  -34.2391 C   0  0  0  0  0  0  0  0  0  0  0  0
   94.5999  101.6846  -35.0676 C   0  0  0  0  0  0  0  0  0  0  0  0
   93.3940  102.2746  -34.6454 C   0  0  0  0  0  0  0  0  0  0  0  0
   92.8047  101.8981  -33.4173 C   0  0  0  0  0  0  0  0  0  0  0  0
   93.4137  100.9257  -32.6024 C   0  0  0  0  0  0  0  0  0  0  0  0
   94.6041  100.3518  -33.0574 C   0  0  0  0  0  0  0  0  0  0  0  0
   97.1402   98.9998  -30.5186 H   0  0  0  0  0  0  0  0  0  0  0  0
   97.4565   98.2886  -33.1613 N   0  0  0  0  0  0  0  0  0  0  0  0
   98.6789   98.5410  -32.4570 C   0  0  0  0  0  0  0  0  0  0  0  0
   98.8639   99.6385  -31.8624 O   0  0  0  0  0  0  0  0  0  0  0  0
   97.3187   97.3934  -33.5470 H   0  0  0  0  0  0  0  0  0  0  0  0
   99.6617   97.5477  -32.4242 O   0  0  0  0  0  0  0  0  0  0  0  0
  100.4818   97.3173  -31.2849 C   0  0  0  0  0  0  0  0  0  0  0  0
   96.1151   97.9363  -29.0008 C   0  0  0  0  0  0  0  0  0  0  0  0
   97.0961   96.7591  -28.9127 C   0  0  0  0  0  0  0  0  0  0  0  0
   96.2256   96.8377  -26.5166 C   0  0  0  0  0  0  0  0  0  0  0  0
   97.2128   96.1935  -27.4893 C   0  0  0  0  0  0  0  0  0  0  0  0
 22 23  1  0  0  0
 23 21  1  0  0  0
 21 20  1  0  0  0
 20  1  1  0  0  0
  1  2  1  0  0  0
  2  3  2  0  0  0
  2  4  1  0  0  0
  4  5  1  0  0  0
  5 14  1  0  0  0
 14 15  1  0  0  0
 15 16  2  0  0  0
 15 18  1  0  0  0
 18 19  1  0  0  0
  5  6  2  0  0  0
  6  7  1  0  0  0
  7  8  2  0  0  0
  8  9  1  0  0  0
  9 10  2  0  0  0
 10 11  1  0  0  0
 11 12  2  0  0  0
 12  4  1  0  0  0
 12  7  1  0  0  0
  1 13  1  0  0  0
 14 17  1  0  0  0
M  END
> <minimizedAffinity>
-5.36729

> <newdefault_CNNaffinity>
4.19839

> <newdefault_CNNscore>
0.460602

> <CNNaffinity_times_score>
1.9337867

> <protein>
3zme

$$$$
144211588


 22 24  0  0  0  0  0  0  0  0999 V2000
   96.8568   99.0911  -32.0479 C   0  0  0  0  0  0  0  0  0  0  0  0
   97.4795   99.6770  -33.3356 C   0  0  0  0  0  0  0  0  0  0  0  0
   96.6500  100.9589  -33.5652 C   0  0  0  0  0  0  0  0  0  0  0  0
   96.4903  101.4534  -32.1477 C   0  0  0  0  0  0  0  0  0  0  0  0
   95.8278  100.1823  -31.6512 C   0  0  0  0  0  0  0  0  0  0  0  0
   94.6219  100.0473  -32.6198 C   0  0  0  0  0  0  0  0  0  0  0  0
   93.4274  100.9463  -32.2608 C   0  0  0  0  0  0  0  0  0  0  0  0
   93.4014  102.0979  -33.2596 C   0  0  0  0  0  0  0  0  0  0  0  0
   94.2369  101.6450  -34.4579 C   0  0  0  0  0  0  0  0  0  0  0  0
   95.1995  100.5440  -33.9574 C   0  0  0  0  0  0  0  0  0  0  0  0
   97.8809   98.7595  -30.9460 C   0  0  0  0  0  0  0  0  0  0  0  0
   97.2892   98.7735  -29.6510 O   0  0  0  0  0  0  0  0  0  0  0  0
   97.2628   97.6524  -28.8185 C   0  0  0  0  0  0  0  0  0  0  0  0
   97.4855   96.5018  -29.2875 O   0  0  0  0  0  0  0  0  0  0  0  0
   95.9577   97.2269  -26.7781 C   0  0  0  0  0  0  0  0  0  0  0  0
   96.9709   97.8383  -27.3888 C   0  0  0  0  0  0  0  0  0  0  0  0
   94.8720  102.8071  -35.2452 C   0  0  0  0  0  0  0  0  0  0  0  0
   94.5982  102.7016  -36.6436 O   0  0  0  0  0  0  0  0  0  0  0  0
   93.4975  103.2846  -37.2801 C   0  0  0  0  0  0  0  0  0  0  0  0
   92.6236  103.9089  -36.6173 O   0  0  0  0  0  0  0  0  0  0  0  0
   93.3834  103.1610  -38.7412 C   0  0  0  0  0  0  0  0  0  0  0  0
   92.3083  102.6481  -39.3366 C   0  0  0  0  0  0  0  0  0  0  0  0
 15 16  2  0  0  0
 16 13  1  0  0  0
 13 14  2  0  0  0
 13 12  1  0  0  0
 12 11  1  0  0  0
  1 11  1  0  0  0
  1  2  1  0  0  0
  3  2  1  0  0  0
  3  4  1  0  0  0
  5  4  1  0  0  0
  5  6  1  0  0  0
  6  7  1  0  0  0
  7  8  1  0  0  0
  8  9  1  0  0  0
  9 17  1  0  0  0
 17 18  1  0  0  0
 18 19  1  0  0  0
 19 20  2  0  0  0
 19 21  1  0  0  0
 21 22  2  0  0  0
 10  9  1  0  0  0
  5  1  1  0  0  0
 10  3  1  0  0  0
 10  6  1  0  0  0
M  END
> <minimizedAffinity>
-4.43835

> <newdefault_CNNaffinity>
4.26457

> <newdefault_CNNscore>
0.546637

> <CNNaffinity_times_score>
2.331172

> <protein>
4ago

$$$$
144211851


 15 16  0  0  0  0  0  0  0  0999 V2000
   99.7375   95.8579  -28.7599 C   0  0  0  0  0  0  0  0  0  0  0  0
  100.0713   96.6002  -27.6150 C   0  0  0  0  0  0  0  0  0  0  0  0
   99.1441   97.4679  -27.0317 C   0  0  0  0  0  0  0  0  0  0  0  0
   97.8554   97.6074  -27.5809 C   0  0  0  0  0  0  0  0  0  0  0  0
   96.8786   98.4691  -27.0317 C   0  0  0  0  0  0  0  0  0  0  0  0
   95.6210   98.5376  -27.6469 C   0  0  0  0  0  0  0  0  0  0  0  0
   95.3662   97.7591  -28.7779 C   0  0  0  0  0  0  0  0  0  0  0  0
   94.2396   97.8134  -29.3368 O   0  0  0  0  0  0  0  0  0  0  0  0
   96.3049   96.9597  -29.2704 O   0  0  0  0  0  0  0  0  0  0  0  0
   97.5150   96.8549  -28.7299 C   0  0  0  0  0  0  0  0  0  0  0  0
   98.4504   95.9902  -29.3070 C   0  0  0  0  0  0  0  0  0  0  0  0
   97.1494   99.3096  -25.8108 C   0  0  0  0  0  0  0  0  0  0  0  0
  100.2753   93.9518  -30.3357 C   0  0  0  0  0  0  0  0  0  0  0  0
  100.6940   94.9557  -29.3542 N   0  0  0  0  0  0  0  0  0  0  0  0
  102.0979   94.9951  -28.9384 C   0  0  0  0  0  0  0  0  0  0  0  0
 13 14  1  0  0  0
 14 15  1  0  0  0
 14  1  1  0  0  0
  1  2  2  0  0  0
  2  3  1  0  0  0
  3  4  2  0  0  0
  4  5  1  0  0  0
  5  6  2  0  0  0
  6  7  1  0  0  0
  7  8  2  0  0  0
  7  9  1  0  0  0
  9 10  1  0  0  0
 10 11  2  0  0  0
  5 12  1  0  0  0
 11  1  1  0  0  0
 10  4  1  0  0  0
M  END
> <minimizedAffinity>
-5.15317

> <newdefault_CNNaffinity>
4.17045

> <newdefault_CNNscore>
0.736599

> <CNNaffinity_times_score>
3.0719495

> <protein>
5o1i

$$$$
144211857


 36 39  0  0  0  0  0  0  0  0999 V2000
   90.1954   92.0831  -46.9312 C   0  0  0  0  0  0  0  0  0  0  0  0
   90.4965   90.7134  -46.9763 C   0  0  0  0  0  0  0  0  0  0  0  0
   90.1116   89.9348  -48.0710 C   0  0  0  0  0  0  0  0  0  0  0  0
   89.4267   90.5130  -49.1533 C   0  0  0  0  0  0  0  0  0  0  0  0
   89.1403   91.8886  -49.1175 C   0  0  0  0  0  0  0  0  0  0  0  0
   89.5231   92.6671  -48.0215 C   0  0  0  0  0  0  0  0  0  0  0  0
   89.0188   89.6854  -50.3173 C   0  0  0  0  0  0  0  0  0  0  0  0
   88.6522   90.2897  -51.5322 C   0  0  0  0  0  0  0  0  0  0  0  0
   88.2688   89.5106  -52.6277 C   0  0  0  0  0  0  0  0  0  0  0  0
   88.2515   88.1058  -52.5337 C   0  0  0  0  0  0  0  0  0  0  0  0
   88.6003   87.5049  -51.3145 C   0  0  0  0  0  0  0  0  0  0  0  0
   88.9858   88.2839  -50.2203 C   0  0  0  0  0  0  0  0  0  0  0  0
   87.8397   87.2375  -53.6635 C   0  0  0  0  0  0  0  0  0  0  0  0
   88.7073   86.5966  -54.4609 C   0  0  0  0  0  0  0  0  0  0  0  0
   88.2683   85.7152  -55.5725 C   0  0  0  0  0  0  0  0  0  0  0  0
   87.4819   84.5778  -55.2980 C   0  0  0  0  0  0  0  0  0  0  0  0
   87.0315   83.7559  -56.3321 C   0  0  0  0  0  0  0  0  0  0  0  0
   87.3493   84.0586  -57.6542 C   0  0  0  0  0  0  0  0  0  0  0  0
   88.1188   85.1847  -57.9484 C   0  0  0  0  0  0  0  0  0  0  0  0
   88.5860   86.0216  -56.9211 C   0  0  0  0  0  0  0  0  0  0  0  0
   89.5841   87.4204  -57.3512 S   0  0  0  0  0  0  0  0  0  0  0  0
   89.6984   87.5429  -58.8451 O   0  0  0  0  0  0  0  0  0  0  0  0
   90.9633   87.2552  -56.7773 O   0  0  0  0  0  0  0  0  0  0  0  0
   88.8809   88.8200  -56.7441 O   0  0  0  0  0  0  0  0  0  0  0  0
   90.9819   92.3241  -44.5826 C   0  0  0  0  0  0  0  0  0  0  0  0
   90.6358   92.8706  -45.7550 C   0  0  0  0  0  0  0  0  0  0  0  0
   92.3640   92.6721  -42.4752 C   0  0  0  0  0  0  0  0  0  0  0  0
   92.7292   93.5138  -41.4116 C   0  0  0  0  0  0  0  0  0  0  0  0
   92.2341   94.8167  -41.3324 C   0  0  0  0  0  0  0  0  0  0  0  0
   91.3739   95.2988  -42.3179 C   0  0  0  0  0  0  0  0  0  0  0  0
   90.9905   94.4731  -43.3759 C   0  0  0  0  0  0  0  0  0  0  0  0
   91.4552   93.1506  -43.4551 C   0  0  0  0  0  0  0  0  0  0  0  0
   94.0491   90.9479  -43.9656 O   0  0  0  0  0  0  0  0  0  0  0  0
   93.1131   91.0698  -42.5753 S   0  0  0  0  0  0  0  0  0  0  0  0
   94.0097   90.8519  -41.3887 O   0  0  0  0  0  0  0  0  0  0  0  0
   92.0487   90.0097  -42.5869 O   0  0  0  0  0  0  0  0  0  0  0  0
 33 34  1  0  0  0
 34 35  2  0  0  0
 34 36  2  0  0  0
 34 27  1  0  0  0
 27 28  2  0  0  0
 28 29  1  0  0  0
 29 30  2  0  0  0
 30 31  1  0  0  0
 31 32  2  0  0  0
 32 25  1  0  0  0
 25 26  2  0  0  0
 26  1  1  0  0  0
  1  2  2  0  0  0
  2  3  1  0  0  0
  3  4  2  0  0  0
  4  5  1  0  0  0
  5  6  2  0  0  0
  4  7  1  0  0  0
  7  8  2  0  0  0
  8  9  1  0  0  0
  9 10  2  0  0  0
 10 13  1  0  0  0
 13 14  2  0  0  0
 14 15  1  0  0  0
 15 16  2  0  0  0
 16 17  1  0  0  0
 17 18  2  0  0  0
 18 19  1  0  0  0
 19 20  2  0  0  0
 20 21  1  0  0  0
 21 22  2  0  0  0
 21 23  2  0  0  0
 21 24  1  0  0  0
 10 11  1  0  0  0
 11 12  2  0  0  0
 32 27  1  0  0  0
  6  1  1  0  0  0
 12  7  1  0  0  0
 20 15  1  0  0  0
M  CHG 1  24  -1
M  CHG 1  33  -1
M  END
> <minimizedAffinity>
-6.80061

> <newdefault_CNNaffinity>
5.5465

> <newdefault_CNNscore>
0.528914

> <CNNaffinity_times_score>
2.9336214

> <protein>
3zme

$$$$
144212132


 20 22  0  0  0  0  0  0  0  0999 V2000
  108.0211   81.3426  -40.8511 C   0  0  0  0  0  0  0  0  0  0  0  0
  108.1378   80.9844  -39.4897 O   0  0  0  0  0  0  0  0  0  0  0  0
  107.2549   79.9122  -39.2386 C   0  0  0  0  0  0  0  0  0  0  0  0
  106.7144   79.3485  -40.5664 C   0  0  0  0  0  0  0  0  0  0  0  0
  105.3063   79.5978  -40.5328 O   0  0  0  0  0  0  0  0  0  0  0  0
  104.9976   80.1877  -39.3287 C   0  0  0  0  0  0  0  0  0  0  0  0
  103.7539   80.5553  -38.9342 N   0  0  0  0  0  0  0  0  0  0  0  0
  103.5829   81.1459  -37.7145 C   0  0  0  0  0  0  0  0  0  0  0  0
  102.3940   81.4993  -37.3317 N   0  0  0  0  0  0  0  0  0  0  0  0
  104.7018   81.3681  -36.8811 C   0  0  0  0  0  0  0  0  0  0  0  0
  105.9668   80.9731  -37.3317 C   0  0  0  0  0  0  0  0  0  0  0  0
  106.0650   80.3905  -38.5526 N   0  0  0  0  0  0  0  0  0  0  0  0
  107.4003   80.1743  -41.6294 C   0  0  0  0  0  0  0  0  0  0  0  0
  108.3905   79.4215  -42.2895 O   0  0  0  0  0  0  0  0  0  0  0  0
  101.6202   81.3405  -37.9192 H   0  0  0  0  0  0  0  0  0  0  0  0
  102.2662   81.9263  -36.4538 H   0  0  0  0  0  0  0  0  0  0  0  0
  109.0337   79.0944  -41.6413 H   0  0  0  0  0  0  0  0  0  0  0  0
  107.2976   83.4038  -39.8176 O   0  0  0  0  0  0  0  0  0  0  0  0
  107.1896   82.6300  -40.9818 C   0  0  0  0  0  0  0  0  0  0  0  0
  106.7685   84.2108  -39.9155 H   0  0  0  0  0  0  0  0  0  0  0  0
 18 19  1  0  0  0
  1 19  1  0  0  0
  1  2  1  0  0  0
  3  2  1  0  0  0
  3  4  1  0  0  0
  4  5  1  0  0  0
  5  6  1  0  0  0
  6  7  2  0  0  0
  7  8  1  0  0  0
  8  9  2  0  0  0
  8 10  1  0  0  0
 10 11  2  0  0  0
 11 12  1  0  0  0
  4 13  1  0  0  0
 13 14  1  0  0  0
 13  1  1  0  0  0
 12  3  1  0  0  0
 12  6  1  0  0  0
 18 20  1  0  0  0
  9 15  1  0  0  0
  9 16  1  0  0  0
 14 17  1  0  0  0
M  CHG 1   9   1
M  END
> <minimizedAffinity>
-6.33974

> <newdefault_CNNaffinity>
3.79383

> <newdefault_CNNscore>
0.722281

> <CNNaffinity_times_score>
2.7402112

> <protein>
3zme

$$$$
144212206


 16 16  0  0  0  0  0  0  0  0999 V2000
   84.2130   89.5372  -38.9446 C   0  0  0  0  0  0  0  0  0  0  0  0
   84.7339   89.1454  -40.1820 C   0  0  0  0  0  0  0  0  0  0  0  0
   85.4029   87.9259  -40.3187 C   0  0  0  0  0  0  0  0  0  0  0  0
   85.5707   87.0752  -39.2120 C   0  0  0  0  0  0  0  0  0  0  0  0
   85.0371   87.4655  -37.9702 C   0  0  0  0  0  0  0  0  0  0  0  0
   84.3677   88.6854  -37.8355 C   0  0  0  0  0  0  0  0  0  0  0  0
   84.0702   91.9178  -38.1947 C   0  0  0  0  0  0  0  0  0  0  0  0
   83.5509   90.7710  -38.8600 O   0  0  0  0  0  0  0  0  0  0  0  0
   86.2741   85.7777  -39.3690 C   0  0  0  0  0  0  0  0  0  0  0  0
   85.7348   84.8539  -40.0376 O   0  0  0  0  0  0  0  0  0  0  0  0
   87.6207   85.5531  -38.8035 C   0  0  0  0  0  0  0  0  0  0  0  0
   87.8487   84.8911  -37.6581 C   0  0  0  0  0  0  0  0  0  0  0  0
   89.1319   86.1261  -39.8324 Br  0  0  0  0  0  0  0  0  0  0  0  0
   86.8112   84.4477  -36.7057 C   0  0  0  0  0  0  0  0  0  0  0  0
   86.8643   84.8431  -35.5121 O   0  0  0  0  0  0  0  0  0  0  0  0
   85.7451   83.6508  -37.1059 O   0  0  0  0  0  0  0  0  0  0  0  0
  7  8  1  0  0  0
  8  1  1  0  0  0
  1  2  2  0  0  0
  2  3  1  0  0  0
  3  4  2  0  0  0
  4  5  1  0  0  0
  5  6  2  0  0  0
  4  9  1  0  0  0
  9 10  2  0  0  0
  9 11  1  0  0  0
 11 12  2  0  0  0
 12 14  1  0  0  0
 14 15  2  0  0  0
 14 16  1  0  0  0
 11 13  1  0  0  0
  6  1  1  0  0  0
M  CHG 1  16  -1
M  END
> <minimizedAffinity>
-5.02143

> <newdefault_CNNaffinity>
3.74775

> <newdefault_CNNscore>
0.317263

> <CNNaffinity_times_score>
1.1890224

> <protein>
5o1i

$$$$
144212248


 27 30  0  0  0  0  0  0  0  0999 V2000
   99.4687   98.0006  -29.0621 C   0  0  0  0  0  0  0  0  0  0  0  0
   99.3663   98.7205  -30.3922 C   0  0  0  0  0  0  0  0  0  0  0  0
  100.3488   98.9796  -31.1377 O   0  0  0  0  0  0  0  0  0  0  0  0
   98.0340   99.0893  -30.7285 N   0  0  0  0  0  0  0  0  0  0  0  0
   97.2461   98.6346  -29.6465 C   0  0  0  0  0  0  0  0  0  0  0  0
   95.8654   98.7783  -29.5174 C   0  0  0  0  0  0  0  0  0  0  0  0
   95.2478   98.2707  -28.3635 C   0  0  0  0  0  0  0  0  0  0  0  0
   96.0147   97.6362  -27.3673 C   0  0  0  0  0  0  0  0  0  0  0  0
   97.4047   97.5044  -27.5177 C   0  0  0  0  0  0  0  0  0  0  0  0
   98.0058   98.0114  -28.6757 C   0  0  0  0  0  0  0  0  0  0  0  0
   97.7277   99.5586  -31.5379 H   0  0  0  0  0  0  0  0  0  0  0  0
  102.2897  100.8815  -24.9612 O   0  0  0  0  0  0  0  0  0  0  0  0
  101.6086  100.1973  -25.9656 C   0  0  0  0  0  0  0  0  0  0  0  0
  101.5490   98.8030  -25.9325 C   0  0  0  0  0  0  0  0  0  0  0  0
  100.8707   98.1030  -26.9335 C   0  0  0  0  0  0  0  0  0  0  0  0
  100.2590   98.7855  -28.0066 C   0  0  0  0  0  0  0  0  0  0  0  0
  100.2976  100.1977  -28.0062 C   0  0  0  0  0  0  0  0  0  0  0  0
  100.9774  100.8933  -27.0022 C   0  0  0  0  0  0  0  0  0  0  0  0
  102.7090  100.4056  -24.2716 H   0  0  0  0  0  0  0  0  0  0  0  0
  100.0363   96.5991  -29.3216 C   0  0  0  0  0  0  0  0  0  0  0  0
   99.2419   95.5447  -29.8254 C   0  0  0  0  0  0  0  0  0  0  0  0
   99.8033   94.2921  -30.0895 C   0  0  0  0  0  0  0  0  0  0  0  0
  101.1664   94.0717  -29.8817 C   0  0  0  0  0  0  0  0  0  0  0  0
  101.7095   92.8169  -30.1482 O   0  0  0  0  0  0  0  0  0  0  0  0
  101.9735   95.1146  -29.4149 C   0  0  0  0  0  0  0  0  0  0  0  0
  101.4174   96.3685  -29.1495 C   0  0  0  0  0  0  0  0  0  0  0  0
  101.1599   92.1253  -30.4605 H   0  0  0  0  0  0  0  0  0  0  0  0
 12 13  1  0  0  0
 13 14  2  0  0  0
 14 15  1  0  0  0
 15 16  2  0  0  0
 16 17  1  0  0  0
 17 18  2  0  0  0
 16  1  1  0  0  0
  1  2  1  0  0  0
  2  3  2  0  0  0
  2  4  1  0  0  0
  4  5  1  0  0  0
  5  6  2  0  0  0
  6  7  1  0  0  0
  7  8  2  0  0  0
  8  9  1  0  0  0
  9 10  2  0  0  0
  1 20  1  0  0  0
 20 21  2  0  0  0
 21 22  1  0  0  0
 22 23  2  0  0  0
 23 24  1  0  0  0
 23 25  1  0  0  0
 25 26  2  0  0  0
 18 13  1  0  0  0
 10  1  1  0  0  0
 10  5  1  0  0  0
 26 20  1  0  0  0
 12 19  1  0  0  0
  4 11  1  0  0  0
 24 27  1  0  0  0
M  END
> <minimizedAffinity>
-6.34911

> <newdefault_CNNaffinity>
4.98917

> <newdefault_CNNscore>
0.581351

> <CNNaffinity_times_score>
2.9004588

> <protein>
4ago

$$$$
144212288


 22 23  0  0  0  0  0  0  0  0999 V2000
   99.9944   95.7424  -29.4527 C   0  0  0  0  0  0  0  0  0  0  0  0
  101.3428   96.0532  -29.1952 O   0  0  0  0  0  0  0  0  0  0  0  0
  102.0915   94.8727  -29.4046 C   0  0  0  0  0  0  0  0  0  0  0  0
  101.2351   93.8474  -30.1707 C   0  0  0  0  0  0  0  0  0  0  0  0
  100.9761   92.7384  -29.3473 O   0  0  0  0  0  0  0  0  0  0  0  0
   99.9503   94.5995  -30.4622 C   0  0  0  0  0  0  0  0  0  0  0  0
   99.9109   95.0595  -31.7935 O   0  0  0  0  0  0  0  0  0  0  0  0
  100.5460   93.0356  -28.5303 H   0  0  0  0  0  0  0  0  0  0  0  0
  100.6837   95.6202  -31.9648 H   0  0  0  0  0  0  0  0  0  0  0  0
   97.1932  100.3559  -31.1925 N   0  0  0  0  0  0  0  0  0  0  0  0
   97.9021   99.1948  -30.7592 C   0  0  0  0  0  0  0  0  0  0  0  0
   97.2538   98.2270  -30.0649 N   0  0  0  0  0  0  0  0  0  0  0  0
   97.8938   97.1076  -29.6362 C   0  0  0  0  0  0  0  0  0  0  0  0
   97.2398   96.2519  -28.9821 O   0  0  0  0  0  0  0  0  0  0  0  0
   99.2308   96.9251  -29.9112 N   0  0  0  0  0  0  0  0  0  0  0  0
   99.9092   97.8980  -30.5940 C   0  0  0  0  0  0  0  0  0  0  0  0
   99.2585   99.0474  -31.0361 C   0  0  0  0  0  0  0  0  0  0  0  0
   96.2340  100.4505  -30.9916 H   0  0  0  0  0  0  0  0  0  0  0  0
   97.6634  101.0618  -31.6922 H   0  0  0  0  0  0  0  0  0  0  0  0
  103.3810   95.2149  -30.1637 C   0  0  0  0  0  0  0  0  0  0  0  0
  103.1414   95.2495  -31.5450 O   0  0  0  0  0  0  0  0  0  0  0  0
  102.8293   94.3800  -31.8409 H   0  0  0  0  0  0  0  0  0  0  0  0
 10 11  1  0  0  0
 11 12  2  0  0  0
 12 13  1  0  0  0
 13 14  2  0  0  0
 13 15  1  0  0  0
 15 16  1  0  0  0
 16 17  2  0  0  0
  1 15  1  0  0  0
  1  2  1  0  0  0
  2  3  1  0  0  0
  3 20  1  0  0  0
 20 21  1  0  0  0
  3  4  1  0  0  0
  4  5  1  0  0  0
  4  6  1  0  0  0
  6  7  1  0  0  0
 17 11  1  0  0  0
  6  1  1  0  0  0
 10 18  1  0  0  0
 10 19  1  0  0  0
 21 22  1  0  0  0
  5  8  1  0  0  0
  7  9  1  0  0  0
M  END
> <minimizedAffinity>
-5.79857

> <newdefault_CNNaffinity>
3.91293

> <newdefault_CNNscore>
0.802878

> <CNNaffinity_times_score>
3.1416056

> <protein>
4ago

$$$$
144212471


 29 33  0  0  0  0  0  0  0  0999 V2000
   97.0296   98.1368  -28.9868 C   0  0  0  0  0  0  0  0  0  0  0  0
   95.8154   98.2414  -29.9384 C   0  0  0  0  0  0  0  0  0  0  0  0
   96.0163   99.0844  -31.1748 C   0  0  0  0  0  0  0  0  0  0  0  0
   94.9235   99.5837  -31.7799 C   0  0  0  0  0  0  0  0  0  0  0  0
   94.9705  100.1179  -33.1505 C   0  0  0  0  0  0  0  0  0  0  0  0
   93.9597  100.7009  -33.6207 O   0  0  0  0  0  0  0  0  0  0  0  0
   96.1934   99.9585  -34.0065 C   0  0  0  0  0  0  0  0  0  0  0  0
   97.2174   98.9922  -33.3803 C   0  0  0  0  0  0  0  0  0  0  0  0
   97.3878   99.1783  -31.8388 C   0  0  0  0  0  0  0  0  0  0  0  0
   97.9620  100.5976  -31.5502 C   0  0  0  0  0  0  0  0  0  0  0  0
   98.3058   98.0349  -31.2483 C   0  0  0  0  0  0  0  0  0  0  0  0
   99.6609   97.8749  -32.0141 C   0  0  0  0  0  0  0  0  0  0  0  0
  100.6469   96.9054  -31.3376 C   0  0  0  0  0  0  0  0  0  0  0  0
  100.8578   97.2761  -29.8527 C   0  0  0  0  0  0  0  0  0  0  0  0
  101.5023   98.7065  -29.7754 C   0  0  0  0  0  0  0  0  0  0  0  0
   99.5025   97.1808  -29.1322 C   0  0  0  0  0  0  0  0  0  0  0  0
   99.8890   97.2659  -27.6489 C   0  0  0  0  0  0  0  0  0  0  0  0
  101.2823   96.6152  -27.5446 C   0  0  0  0  0  0  0  0  0  0  0  0
  101.7261   96.3020  -28.9962 C   0  0  0  0  0  0  0  0  0  0  0  0
  101.5740   94.7785  -29.3359 C   0  0  0  0  0  0  0  0  0  0  0  0
  102.8331   94.3969  -30.1215 C   0  0  0  0  0  0  0  0  0  0  0  0
  103.7315   95.5321  -29.8430 C   0  0  0  0  0  0  0  0  0  0  0  0
  104.9381   95.5794  -30.1963 O   0  0  0  0  0  0  0  0  0  0  0  0
  103.1100   96.5641  -29.1797 O   0  0  0  0  0  0  0  0  0  0  0  0
   98.4436   98.1801  -29.6890 C   0  0  0  0  0  0  0  0  0  0  0  0
   96.7263   96.6438  -27.9499 S   0  0  0  0  0  0  0  0  0  0  0  0
   96.8743   98.9590  -26.2900 C   0  0  0  0  0  0  0  0  0  0  0  0
   96.4075   97.5403  -26.4286 C   0  0  0  0  0  0  0  0  0  0  0  0
   95.8338   96.9819  -25.5044 O   0  0  0  0  0  0  0  0  0  0  0  0
 27 28  1  0  0  0
 28 29  2  0  0  0
 28 26  1  0  0  0
  1 26  1  0  0  0
  1  2  1  0  0  0
  2  3  1  0  0  0
  3  4  2  0  0  0
  4  5  1  0  0  0
  5  6  2  0  0  0
  5  7  1  0  0  0
  7  8  1  0  0  0
  8  9  1  0  0  0
  9 10  1  0  0  0
  9 11  1  0  0  0
 11 12  1  0  0  0
 12 13  1  0  0  0
 13 14  1  0  0  0
 14 15  1  0  0  0
 14 16  1  0  0  0
 16 17  1  0  0  0
 17 18  1  0  0  0
 19 18  1  0  0  0
 19 20  1  0  0  0
 20 21  1  0  0  0
 21 22  1  0  0  0
 22 23  2  0  0  0
 22 24  1  0  0  0
 16 25  1  0  0  0
 25  1  1  0  0  0
  9  3  1  0  0  0
 25 11  1  0  0  0
 19 14  1  0  0  0
 24 19  1  0  0  0
M  END
> <minimizedAffinity>
-6.85561

> <newdefault_CNNaffinity>
5.91046

> <newdefault_CNNscore>
0.415971

> <CNNaffinity_times_score>
2.45858

> <protein>
5o1i

$$$$
144212700


 24 26  0  0  0  0  0  0  0  0999 V2000
  137.0192  103.1943  -30.2841 C   0  0  0  0  0  0  0  0  0  0  0  0
  135.9610  102.4696  -29.8297 N   0  0  0  0  0  0  0  0  0  0  0  0
  134.9567  103.3637  -29.8670 C   0  0  0  0  0  0  0  0  0  0  0  0
  133.6269  103.1663  -29.5063 C   0  0  0  0  0  0  0  0  0  0  0  0
  132.7458  104.2572  -29.6302 C   0  0  0  0  0  0  0  0  0  0  0  0
  133.2113  105.5082  -30.1097 C   0  0  0  0  0  0  0  0  0  0  0  0
  134.5664  105.6694  -30.4612 C   0  0  0  0  0  0  0  0  0  0  0  0
  135.4054  104.5665  -30.3244 C   0  0  0  0  0  0  0  0  0  0  0  0
  136.7130  104.4778  -30.5946 N   0  0  0  0  0  0  0  0  0  0  0  0
  137.3119  105.1797  -30.9382 H   0  0  0  0  0  0  0  0  0  0  0  0
  139.2726  102.5145  -29.3452 C   0  0  0  0  0  0  0  0  0  0  0  0
  138.9557  102.8567  -28.1727 O   0  0  0  0  0  0  0  0  0  0  0  0
  138.3442  102.6632  -30.4273 N   0  0  0  0  0  0  0  0  0  0  0  0
  138.6342  102.3832  -31.3255 H   0  0  0  0  0  0  0  0  0  0  0  0
  140.7558  100.5982  -29.8454 C   0  0  0  0  0  0  0  0  0  0  0  0
  140.5391  101.9836  -29.6055 O   0  0  0  0  0  0  0  0  0  0  0  0
  132.1025  106.8902  -30.2802 S   0  0  0  0  0  0  0  0  0  0  0  0
  132.9835  108.1330  -30.2867 O   0  0  0  0  0  0  0  0  0  0  0  0
  131.1717  106.9612  -28.7640 C   0  0  0  0  0  0  0  0  0  0  0  0
  129.9361  106.3059  -28.6860 C   0  0  0  0  0  0  0  0  0  0  0  0
  129.1943  106.3440  -27.5009 C   0  0  0  0  0  0  0  0  0  0  0  0
  129.6839  107.0385  -26.3907 C   0  0  0  0  0  0  0  0  0  0  0  0
  130.9148  107.6969  -26.4653 C   0  0  0  0  0  0  0  0  0  0  0  0
  131.6584  107.6602  -27.6492 C   0  0  0  0  0  0  0  0  0  0  0  0
 15 16  1  0  0  0
 16 11  1  0  0  0
 11 12  2  0  0  0
 11 13  1  0  0  0
 13  1  1  0  0  0
  1  2  2  0  0  0
  2  3  1  0  0  0
  3  4  2  0  0  0
  4  5  1  0  0  0
  5  6  2  0  0  0
  6  7  1  0  0  0
  7  8  2  0  0  0
  8  9  1  0  0  0
 17  6  1  0  0  0
 17 18  2  0  0  0
 17 19  1  0  0  0
 19 20  2  0  0  0
 20 21  1  0  0  0
 21 22  2  0  0  0
 22 23  1  0  0  0
 23 24  2  0  0  0
  9  1  1  0  0  0
  8  3  1  0  0  0
 24 19  1  0  0  0
 13 14  1  0  0  0
  9 10  1  0  0  0
M  END
> <minimizedAffinity>
-5.95523

> <newdefault_CNNaffinity>
4.66942

> <newdefault_CNNscore>
0.229034

> <CNNaffinity_times_score>
1.0694559

> <protein>
2vuk

$$$$
144212963


 20 23  0  0  0  0  0  0  0  0999 V2000
   98.3560   96.6754  -29.6281 C   0  0  0  0  0  0  0  0  0  0  0  0
   98.8303   95.3533  -29.5326 C   0  0  0  0  0  0  0  0  0  0  0  0
  100.2038   95.1004  -29.4705 C   0  0  0  0  0  0  0  0  0  0  0  0
  101.1223   96.1605  -29.5004 C   0  0  0  0  0  0  0  0  0  0  0  0
  100.6486   97.4779  -29.5915 C   0  0  0  0  0  0  0  0  0  0  0  0
   99.2756   97.7303  -29.6549 C   0  0  0  0  0  0  0  0  0  0  0  0
   96.9891   96.9811  -29.7000 O   0  0  0  0  0  0  0  0  0  0  0  0
   96.2003   97.4204  -28.5933 C   0  0  0  0  0  0  0  0  0  0  0  0
   96.5009   96.6144  -27.3257 C   0  0  0  0  0  0  0  0  0  0  0  0
   95.9275   97.1214  -26.0585 C   0  0  0  0  0  0  0  0  0  0  0  0
   97.2844   97.3202  -26.3926 O   0  0  0  0  0  0  0  0  0  0  0  0
  102.5366   95.8990  -29.4410 N   0  0  0  0  0  0  0  0  0  0  0  0
  103.0980   95.1885  -28.2854 C   0  0  0  0  0  0  0  0  0  0  0  0
  104.3776   95.8846  -27.8205 C   0  0  0  0  0  0  0  0  0  0  0  0
  104.5255   96.0846  -26.3621 C   0  0  0  0  0  0  0  0  0  0  0  0
  105.1858   95.0375  -27.0389 O   0  0  0  0  0  0  0  0  0  0  0  0
  103.4043   96.3386  -30.5415 C   0  0  0  0  0  0  0  0  0  0  0  0
  103.0574   95.5658  -31.8148 C   0  0  0  0  0  0  0  0  0  0  0  0
  103.9617   95.7563  -32.9698 C   0  0  0  0  0  0  0  0  0  0  0  0
  104.0454   94.6175  -32.1421 O   0  0  0  0  0  0  0  0  0  0  0  0
  8  7  1  0  0  0
  7  1  1  0  0  0
  1  2  2  0  0  0
  2  3  1  0  0  0
  3  4  2  0  0  0
  4  5  1  0  0  0
  5  6  2  0  0  0
  4 12  1  0  0  0
 12 13  1  0  0  0
 14 13  1  0  0  0
 14 15  1  0  0  0
 15 16  1  0  0  0
 12 17  1  0  0  0
 18 17  1  0  0  0
 18 19  1  0  0  0
 19 20  1  0  0  0
  9  8  1  0  0  0
  9 10  1  0  0  0
 10 11  1  0  0  0
  6  1  1  0  0  0
 16 14  1  0  0  0
 20 18  1  0  0  0
 11  9  1  0  0  0
M  END
> <minimizedAffinity>
-4.23401

> <newdefault_CNNaffinity>
3.82278

> <newdefault_CNNscore>
0.475977

> <CNNaffinity_times_score>
1.8195553

> <protein>
5o1i

$$$$
144213150


 25 27  0  0  0  0  0  0  0  0999 V2000
   85.4280   93.4853  -36.5456 N   0  0  0  0  0  0  0  0  0  0  0  0
   85.2538   92.1952  -37.1265 C   0  0  0  0  0  0  0  0  0  0  0  0
   85.4016   92.0283  -38.4692 N   0  0  0  0  0  0  0  0  0  0  0  0
   85.2425   90.8107  -39.0550 C   0  0  0  0  0  0  0  0  0  0  0  0
   85.4069   90.6831  -40.4696 N   0  0  0  0  0  0  0  0  0  0  0  0
   84.9190   89.7054  -38.2563 C   0  0  0  0  0  0  0  0  0  0  0  0
   84.7379   88.4653  -38.7797 N   0  0  0  0  0  0  0  0  0  0  0  0
   84.4169   87.3984  -37.9965 C   0  0  0  0  0  0  0  0  0  0  0  0
   84.2966   87.5891  -36.5982 C   0  0  0  0  0  0  0  0  0  0  0  0
   84.0572   86.5005  -35.7003 N   0  0  0  0  0  0  0  0  0  0  0  0
   84.4706   88.8373  -36.0836 N   0  0  0  0  0  0  0  0  0  0  0  0
   84.7711   89.8969  -36.8756 C   0  0  0  0  0  0  0  0  0  0  0  0
   84.9413   91.1316  -36.3385 N   0  0  0  0  0  0  0  0  0  0  0  0
   85.6541   94.2554  -37.1158 H   0  0  0  0  0  0  0  0  0  0  0  0
   85.3221   93.6062  -35.5743 H   0  0  0  0  0  0  0  0  0  0  0  0
   85.6342   91.4727  -41.0119 H   0  0  0  0  0  0  0  0  0  0  0  0
   85.2929   89.8057  -40.9013 H   0  0  0  0  0  0  0  0  0  0  0  0
   83.9289   85.5904  -36.0532 H   0  0  0  0  0  0  0  0  0  0  0  0
   84.0207   86.6619  -34.7298 H   0  0  0  0  0  0  0  0  0  0  0  0
   84.1919   86.0923  -38.6503 C   0  0  0  0  0  0  0  0  0  0  0  0
   82.9072   85.5231  -38.6997 C   0  0  0  0  0  0  0  0  0  0  0  0
   82.7010   84.3047  -39.3542 C   0  0  0  0  0  0  0  0  0  0  0  0
   83.7698   83.6542  -39.9767 C   0  0  0  0  0  0  0  0  0  0  0  0
   85.0453   84.2246  -39.9516 C   0  0  0  0  0  0  0  0  0  0  0  0
   85.2558   85.4429  -39.2981 C   0  0  0  0  0  0  0  0  0  0  0  0
  1  2  1  0  0  0
  2  3  2  0  0  0
  3  4  1  0  0  0
  4  5  1  0  0  0
  4  6  2  0  0  0
  6  7  1  0  0  0
  7  8  2  0  0  0
  8  9  1  0  0  0
  9 10  1  0  0  0
  9 11  2  0  0  0
 11 12  1  0  0  0
 12 13  2  0  0  0
  8 20  1  0  0  0
 20 21  2  0  0  0
 21 22  1  0  0  0
 22 23  2  0  0  0
 23 24  1  0  0  0
 24 25  2  0  0  0
 13  2  1  0  0  0
 12  6  1  0  0  0
 25 20  1  0  0  0
  1 14  1  0  0  0
  1 15  1  0  0  0
  5 16  1  0  0  0
  5 17  1  0  0  0
 10 18  1  0  0  0
 10 19  1  0  0  0
M  END
> <minimizedAffinity>
-6.19231

> <newdefault_CNNaffinity>
4.06847

> <newdefault_CNNscore>
0.485841

> <CNNaffinity_times_score>
1.9766296

> <protein>
4ago

$$$$
144213313


 19 19  0  0  0  0  0  0  0  0999 V2000
   91.1348   93.4138  -46.0595 C   0  0  0  0  0  0  0  0  0  0  0  0
   91.5089   92.4076  -45.1536 C   0  0  0  0  0  0  0  0  0  0  0  0
   91.7281   92.7038  -43.8061 C   0  0  0  0  0  0  0  0  0  0  0  0
   91.5797   94.0158  -43.3350 C   0  0  0  0  0  0  0  0  0  0  0  0
   91.2095   95.0271  -44.2331 C   0  0  0  0  0  0  0  0  0  0  0  0
   90.9882   94.7329  -45.5815 C   0  0  0  0  0  0  0  0  0  0  0  0
   90.9160   93.0177  -47.5075 C   0  0  0  0  0  0  0  0  0  0  0  0
   91.2208   91.5465  -47.8435 C   0  0  0  0  0  0  0  0  0  0  0  0
   90.7826   91.1742  -49.2664 C   0  0  0  0  0  0  0  0  0  0  0  0
   90.3960   88.7035  -49.3203 O   0  0  0  0  0  0  0  0  0  0  0  0
   89.8681   89.9875  -49.2740 C   0  0  0  0  0  0  0  0  0  0  0  0
   88.6208   90.1472  -49.2099 O   0  0  0  0  0  0  0  0  0  0  0  0
   91.8084   94.3215  -41.9454 N   0  0  0  0  0  0  0  0  0  0  0  0
   92.6365   93.4233  -41.1272 C   0  0  0  0  0  0  0  0  0  0  0  0
   94.1136   93.6021  -41.4697 C   0  0  0  0  0  0  0  0  0  0  0  0
   94.9754   92.0524  -41.3001 Cl  0  0  0  0  0  0  0  0  0  0  0  0
   91.2053   95.5245  -41.3508 C   0  0  0  0  0  0  0  0  0  0  0  0
   92.2756   96.5579  -40.9984 C   0  0  0  0  0  0  0  0  0  0  0  0
   91.9473   98.1139  -41.8056 Cl  0  0  0  0  0  0  0  0  0  0  0  0
 10 11  1  0  0  0
 11 12  2  0  0  0
 11  9  1  0  0  0
  9  8  1  0  0  0
  8  7  1  0  0  0
  7  1  1  0  0  0
  1  2  2  0  0  0
  2  3  1  0  0  0
  3  4  2  0  0  0
  4  5  1  0  0  0
  5  6  2  0  0  0
  4 13  1  0  0  0
 13 14  1  0  0  0
 14 15  1  0  0  0
 15 16  1  0  0  0
 13 17  1  0  0  0
 17 18  1  0  0  0
 18 19  1  0  0  0
  6  1  1  0  0  0
M  CHG 1  10  -1
M  END
> <minimizedAffinity>
-5.45278

> <newdefault_CNNaffinity>
4.66312

> <newdefault_CNNscore>
0.637092

> <CNNaffinity_times_score>
2.9708364

> <protein>
5g4o

$$$$
144213319


 21 22  0  0  0  0  0  0  0  0999 V2000
   96.6355   96.9645  -28.4436 C   0  0  0  0  0  0  0  0  0  0  0  0
   95.9074   96.6302  -27.4220 N   0  0  0  0  0  0  0  0  0  0  0  0
   96.2845   96.0584  -26.7148 H   0  0  0  0  0  0  0  0  0  0  0  0
  100.7231   95.5618  -28.6271 C   0  0  0  0  0  0  0  0  0  0  0  0
   99.7256   94.9964  -29.4485 C   0  0  0  0  0  0  0  0  0  0  0  0
   98.4052   95.4494  -29.3900 C   0  0  0  0  0  0  0  0  0  0  0  0
   98.0410   96.4855  -28.5148 C   0  0  0  0  0  0  0  0  0  0  0  0
   99.0260   97.0456  -27.6859 C   0  0  0  0  0  0  0  0  0  0  0  0
  100.3474   96.5948  -27.7432 C   0  0  0  0  0  0  0  0  0  0  0  0
  102.5077   94.1099  -29.7009 C   0  0  0  0  0  0  0  0  0  0  0  0
  102.0977   95.0927  -28.6893 N   0  0  0  0  0  0  0  0  0  0  0  0
  103.1035   95.5983  -27.7457 C   0  0  0  0  0  0  0  0  0  0  0  0
   96.0625   97.8275  -29.5087 C   0  0  0  0  0  0  0  0  0  0  0  0
   96.8978   98.6064  -30.3228 C   0  0  0  0  0  0  0  0  0  0  0  0
   96.3578   99.4156  -31.3262 C   0  0  0  0  0  0  0  0  0  0  0  0
   94.9654   99.4641  -31.5452 C   0  0  0  0  0  0  0  0  0  0  0  0
   94.1342   98.6734  -30.7251 C   0  0  0  0  0  0  0  0  0  0  0  0
   94.6767   97.8660  -29.7221 C   0  0  0  0  0  0  0  0  0  0  0  0
   94.4031  100.3049  -32.5871 N   0  0  0  0  0  0  0  0  0  0  0  0
   93.1681  101.0626  -32.3497 C   0  0  0  0  0  0  0  0  0  0  0  0
   95.0598  100.4116  -33.8960 C   0  0  0  0  0  0  0  0  0  0  0  0
 10 11  1  0  0  0
 11 12  1  0  0  0
 11  4  1  0  0  0
  4  5  2  0  0  0
  5  6  1  0  0  0
  6  7  2  0  0  0
  7  8  1  0  0  0
  8  9  2  0  0  0
  7  1  1  0  0  0
  1  2  2  0  0  0
  1 13  1  0  0  0
 13 14  2  0  0  0
 14 15  1  0  0  0
 15 16  2  0  0  0
 16 17  1  0  0  0
 17 18  2  0  0  0
 16 19  1  0  0  0
 19 20  1  0  0  0
 19 21  1  0  0  0
  9  4  1  0  0  0
 18 13  1  0  0  0
  2  3  1  0  0  0
M  END
> <minimizedAffinity>
-5.53531

> <newdefault_CNNaffinity>
4.09793

> <newdefault_CNNscore>
0.463759

> <CNNaffinity_times_score>
1.9004519

> <protein>
3zme

$$$$
144213602


 17 18  0  0  0  0  0  0  0  0999 V2000
   99.6237   96.5604  -28.6994 C   0  0  0  0  0  0  0  0  0  0  0  0
   99.9445   97.3398  -27.5783 C   0  0  0  0  0  0  0  0  0  0  0  0
   98.9963   98.1955  -27.0118 C   0  0  0  0  0  0  0  0  0  0  0  0
   97.7029   98.2879  -27.5613 C   0  0  0  0  0  0  0  0  0  0  0  0
   96.7045   99.1355  -27.0299 C   0  0  0  0  0  0  0  0  0  0  0  0
   95.4456   99.1593  -27.6458 C   0  0  0  0  0  0  0  0  0  0  0  0
   95.2107   98.3513  -28.7604 C   0  0  0  0  0  0  0  0  0  0  0  0
   94.0831   98.3658  -29.3199 O   0  0  0  0  0  0  0  0  0  0  0  0
   96.1692   97.5658  -29.2366 O   0  0  0  0  0  0  0  0  0  0  0  0
   97.3812   97.5024  -28.6944 C   0  0  0  0  0  0  0  0  0  0  0  0
   98.3384   96.6499  -29.2540 C   0  0  0  0  0  0  0  0  0  0  0  0
   96.9540  100.0084  -25.8273 C   0  0  0  0  0  0  0  0  0  0  0  0
  100.6121   95.6917  -29.2864 N   0  0  0  0  0  0  0  0  0  0  0  0
  100.7317   93.3251  -29.9574 C   0  0  0  0  0  0  0  0  0  0  0  0
  100.2167   94.7168  -30.3120 C   0  0  0  0  0  0  0  0  0  0  0  0
  102.0139   95.7649  -28.8472 C   0  0  0  0  0  0  0  0  0  0  0  0
  102.8646   96.5074  -29.8734 C   0  0  0  0  0  0  0  0  0  0  0  0
 14 15  1  0  0  0
 15 13  1  0  0  0
 13 16  1  0  0  0
 16 17  1  0  0  0
 13  1  1  0  0  0
  1  2  2  0  0  0
  2  3  1  0  0  0
  3  4  2  0  0  0
  4  5  1  0  0  0
  5  6  2  0  0  0
  6  7  1  0  0  0
  7  8  2  0  0  0
  7  9  1  0  0  0
  9 10  1  0  0  0
 10 11  2  0  0  0
  5 12  1  0  0  0
 11  1  1  0  0  0
 10  4  1  0  0  0
M  END
> <minimizedAffinity>
-5.41743

> <newdefault_CNNaffinity>
4.65597

> <newdefault_CNNscore>
0.804393

> <CNNaffinity_times_score>
3.7452297

> <protein>
4agq

$$$$
144213616


 17 19  0  0  0  0  0  0  0  0999 V2000
   90.6916   92.2218  -48.7456 N   0  0  0  0  0  0  0  0  0  0  0  0
   90.9585   92.5907  -47.3898 C   0  0  0  0  0  0  0  0  0  0  0  0
   91.4230   91.6327  -46.4787 C   0  0  0  0  0  0  0  0  0  0  0  0
   91.6856   91.9866  -45.1527 C   0  0  0  0  0  0  0  0  0  0  0  0
   91.4862   93.3066  -44.7210 C   0  0  0  0  0  0  0  0  0  0  0  0
   91.7480   93.6682  -43.3911 C   0  0  0  0  0  0  0  0  0  0  0  0
   91.5470   94.9891  -42.9643 C   0  0  0  0  0  0  0  0  0  0  0  0
   91.8074   95.3566  -41.6345 C   0  0  0  0  0  0  0  0  0  0  0  0
   91.6044   96.6751  -41.2175 C   0  0  0  0  0  0  0  0  0  0  0  0
   91.1415   97.6350  -42.1211 C   0  0  0  0  0  0  0  0  0  0  0  0
   90.8783   97.2828  -43.4479 C   0  0  0  0  0  0  0  0  0  0  0  0
   91.0777   95.9620  -43.8802 C   0  0  0  0  0  0  0  0  0  0  0  0
   90.8161   95.6000  -45.2099 C   0  0  0  0  0  0  0  0  0  0  0  0
   91.0171   94.2788  -45.6366 C   0  0  0  0  0  0  0  0  0  0  0  0
   90.7565   93.9121  -46.9666 C   0  0  0  0  0  0  0  0  0  0  0  0
   90.8342   91.2934  -49.0403 H   0  0  0  0  0  0  0  0  0  0  0  0
   90.3652   92.8963  -49.3842 H   0  0  0  0  0  0  0  0  0  0  0  0
  1  2  1  0  0  0
  2  3  2  0  0  0
  3  4  1  0  0  0
  4  5  2  0  0  0
  5  6  1  0  0  0
  6  7  2  0  0  0
  7  8  1  0  0  0
  8  9  2  0  0  0
  9 10  1  0  0  0
 10 11  2  0  0  0
 11 12  1  0  0  0
 12 13  2  0  0  0
 13 14  1  0  0  0
 14 15  2  0  0  0
 15  2  1  0  0  0
 14  5  1  0  0  0
 12  7  1  0  0  0
  1 16  1  0  0  0
  1 17  1  0  0  0
M  END
> <minimizedAffinity>
-7.19632

> <newdefault_CNNaffinity>
3.74953

> <newdefault_CNNscore>
0.838916

> <CNNaffinity_times_score>
3.1455407

> <protein>
5g4o

$$$$
144213627


 19 20  0  0  0  0  0  0  0  0999 V2000
  101.9598   92.7301  -29.8960 N   0  0  0  0  0  0  0  0  0  0  0  0
  101.3216   93.9892  -30.1270 C   0  0  0  0  0  0  0  0  0  0  0  0
  101.8670   94.8962  -31.0406 C   0  0  0  0  0  0  0  0  0  0  0  0
  101.2506   96.1283  -31.2731 C   0  0  0  0  0  0  0  0  0  0  0  0
  100.0668   96.4809  -30.5909 C   0  0  0  0  0  0  0  0  0  0  0  0
   99.4055   97.7208  -30.7981 C   0  0  0  0  0  0  0  0  0  0  0  0
   99.8630   98.6934  -31.6923 O   0  0  0  0  0  0  0  0  0  0  0  0
   98.2353   98.0086  -30.0865 C   0  0  0  0  0  0  0  0  0  0  0  0
   97.7059   97.0959  -29.1702 C   0  0  0  0  0  0  0  0  0  0  0  0
   98.3437   95.8706  -28.9644 C   0  0  0  0  0  0  0  0  0  0  0  0
   99.5180   95.5548  -29.6622 C   0  0  0  0  0  0  0  0  0  0  0  0
  100.1490   94.3204  -29.4403 C   0  0  0  0  0  0  0  0  0  0  0  0
  102.7851   92.5002  -30.3810 H   0  0  0  0  0  0  0  0  0  0  0  0
  101.5738   92.0934  -29.2518 H   0  0  0  0  0  0  0  0  0  0  0  0
  100.6426   98.5428  -32.1898 H   0  0  0  0  0  0  0  0  0  0  0  0
   96.2273   97.4775  -28.2955 S   0  0  0  0  0  0  0  0  0  0  0  0
   95.9743   96.4333  -27.2447 O   0  0  0  0  0  0  0  0  0  0  0  0
   95.0720   97.5149  -29.2551 O   0  0  0  0  0  0  0  0  0  0  0  0
   96.3763   98.9721  -27.5422 O   0  0  0  0  0  0  0  0  0  0  0  0
  1  2  1  0  0  0
  2  3  2  0  0  0
  3  4  1  0  0  0
  4  5  2  0  0  0
  5  6  1  0  0  0
  6  7  1  0  0  0
  6  8  2  0  0  0
  8  9  1  0  0  0
  9 10  2  0  0  0
 10 11  1  0  0  0
 11 12  2  0  0  0
  9 16  1  0  0  0
 16 17  2  0  0  0
 16 18  2  0  0  0
 16 19  1  0  0  0
 12  2  1  0  0  0
 11  5  1  0  0  0
  1 13  1  0  0  0
  1 14  1  0  0  0
  7 15  1  0  0  0
M  CHG 1  19  -1
M  END
> <minimizedAffinity>
-5.91150

> <newdefault_CNNaffinity>
4.43894

> <newdefault_CNNscore>
0.764473

> <CNNaffinity_times_score>
3.39345

> <protein>
5o1i

$$$$
144213716


 25 26  0  0  0  0  0  0  0  0999 V2000
   97.9088  101.8654  -31.1892 S   0  0  0  0  0  0  0  0  0  0  0  0
   98.2300  102.5103  -29.8712 O   0  0  0  0  0  0  0  0  0  0  0  0
   98.8032  102.4314  -32.2565 O   0  0  0  0  0  0  0  0  0  0  0  0
   96.2427  102.1418  -31.5888 N   0  0  0  0  0  0  0  0  0  0  0  0
   95.1682  101.7732  -30.7153 C   0  0  0  0  0  0  0  0  0  0  0  0
   94.0618  102.3676  -30.8117 O   0  0  0  0  0  0  0  0  0  0  0  0
   96.0272  102.5685  -32.4495 H   0  0  0  0  0  0  0  0  0  0  0  0
   95.3282  100.7184  -29.6995 C   0  0  0  0  0  0  0  0  0  0  0  0
   95.6761  101.0786  -28.3898 C   0  0  0  0  0  0  0  0  0  0  0  0
   95.8526  100.0981  -27.4105 C   0  0  0  0  0  0  0  0  0  0  0  0
   95.6588   98.7449  -27.7220 C   0  0  0  0  0  0  0  0  0  0  0  0
   95.8871   97.6896  -26.6807 C   0  0  0  0  0  0  0  0  0  0  0  0
   95.3069   98.3818  -29.0305 C   0  0  0  0  0  0  0  0  0  0  0  0
   95.1292   99.3601  -30.0161 C   0  0  0  0  0  0  0  0  0  0  0  0
   94.6023   98.8559  -31.6189 Cl  0  0  0  0  0  0  0  0  0  0  0  0
   98.9927   99.6539  -30.1073 C   0  0  0  0  0  0  0  0  0  0  0  0
   98.1970  100.1389  -31.0651 C   0  0  0  0  0  0  0  0  0  0  0  0
   99.8364   95.4683  -29.5403 C   0  0  0  0  0  0  0  0  0  0  0  0
  100.2329   96.1024  -30.7319 C   0  0  0  0  0  0  0  0  0  0  0  0
   99.9675   97.4607  -30.9324 C   0  0  0  0  0  0  0  0  0  0  0  0
   99.3076   98.2137  -29.9411 C   0  0  0  0  0  0  0  0  0  0  0  0
   98.9021   97.5699  -28.7611 C   0  0  0  0  0  0  0  0  0  0  0  0
   99.1692   96.2127  -28.5626 C   0  0  0  0  0  0  0  0  0  0  0  0
  100.9418   93.2914  -30.0788 C   0  0  0  0  0  0  0  0  0  0  0  0
  100.0816   94.1095  -29.2924 O   0  0  0  0  0  0  0  0  0  0  0  0
 24 25  1  0  0  0
 25 18  1  0  0  0
 18 19  2  0  0  0
 19 20  1  0  0  0
 20 21  2  0  0  0
 21 16  1  0  0  0
 16 17  2  0  0  0
 17  1  1  0  0  0
  1  2  2  0  0  0
  1  3  2  0  0  0
  1  4  1  0  0  0
  4  5  1  0  0  0
  5  6  2  0  0  0
  5  8  1  0  0  0
  8  9  2  0  0  0
  9 10  1  0  0  0
 10 11  2  0  0  0
 11 12  1  0  0  0
 11 13  1  0  0  0
 13 14  2  0  0  0
 14 15  1  0  0  0
 21 22  1  0  0  0
 22 23  2  0  0  0
 23 18  1  0  0  0
 14  8  1  0  0  0
  4  7  1  0  0  0
M  END
> <minimizedAffinity>
-4.94975

> <newdefault_CNNaffinity>
4.81344

> <newdefault_CNNscore>
0.322371

> <CNNaffinity_times_score>
1.5517135

> <protein>
4ago

$$$$
144213781


 15 15  0  0  0  0  0  0  0  0999 V2000
  132.2512  106.4764  -30.2021 C   0  0  0  0  0  0  0  0  0  0  0  0
  133.3047  106.3365  -31.1282 C   0  0  0  0  0  0  0  0  0  0  0  0
  133.9936  105.1241  -31.2334 C   0  0  0  0  0  0  0  0  0  0  0  0
  133.6439  104.0412  -30.4164 C   0  0  0  0  0  0  0  0  0  0  0  0
  134.3234  102.8291  -30.5133 O   0  0  0  0  0  0  0  0  0  0  0  0
  132.6030  104.1779  -29.4935 C   0  0  0  0  0  0  0  0  0  0  0  0
  131.9127  105.3890  -29.3867 C   0  0  0  0  0  0  0  0  0  0  0  0
  135.0220  102.7316  -31.1301 H   0  0  0  0  0  0  0  0  0  0  0  0
  131.5257  107.6697  -30.0496 O   0  0  0  0  0  0  0  0  0  0  0  0
  130.1021  107.7778  -30.0208 C   0  0  0  0  0  0  0  0  0  0  0  0
  129.6165  108.8233  -31.0352 C   0  0  0  0  0  0  0  0  0  0  0  0
  128.9222  108.1924  -32.2523 C   0  0  0  0  0  0  0  0  0  0  0  0
  129.6679  108.4713  -33.5685 C   0  0  0  0  0  0  0  0  0  0  0  0
  127.7822  110.1881  -33.7046 C   0  0  0  0  0  0  0  0  0  0  0  0
  129.0140  109.5948  -34.3881 C   0  0  0  0  0  0  0  0  0  0  0  0
 14 15  1  0  0  0
 15 13  1  0  0  0
 13 12  1  0  0  0
 12 11  1  0  0  0
 11 10  1  0  0  0
 10  9  1  0  0  0
  9  1  1  0  0  0
  1  2  2  0  0  0
  2  3  1  0  0  0
  3  4  2  0  0  0
  4  5  1  0  0  0
  4  6  1  0  0  0
  6  7  2  0  0  0
  7  1  1  0  0  0
  5  8  1  0  0  0
M  END
> <minimizedAffinity>
-3.81732

> <newdefault_CNNaffinity>
3.75101

> <newdefault_CNNscore>
0.672402

> <CNNaffinity_times_score>
2.5221868

> <protein>
2vuk

$$$$
144213844


 23 24  0  0  0  0  0  0  0  0999 V2000
  101.1389   96.6880  -28.4343 C   0  0  0  0  0  0  0  0  0  0  0  0
  102.0308   95.8707  -28.0819 O   0  0  0  0  0  0  0  0  0  0  0  0
  100.0694   96.9842  -27.5229 N   0  0  0  0  0  0  0  0  0  0  0  0
   99.8840   96.3395  -26.8023 H   0  0  0  0  0  0  0  0  0  0  0  0
  101.3343   98.9779  -33.5880 F   0  0  0  0  0  0  0  0  0  0  0  0
  101.3008   98.4264  -32.3499 C   0  0  0  0  0  0  0  0  0  0  0  0
  100.5242   97.2907  -32.1126 C   0  0  0  0  0  0  0  0  0  0  0  0
  100.4836   96.7240  -30.8364 C   0  0  0  0  0  0  0  0  0  0  0  0
  101.2135   97.2944  -29.7804 C   0  0  0  0  0  0  0  0  0  0  0  0
  102.0101   98.4341  -30.0294 C   0  0  0  0  0  0  0  0  0  0  0  0
  102.9260   99.2248  -28.7500 Cl  0  0  0  0  0  0  0  0  0  0  0  0
  102.0437   98.9941  -31.3123 C   0  0  0  0  0  0  0  0  0  0  0  0
   99.0825   98.4119  -27.6148 S   0  0  0  0  0  0  0  0  0  0  0  0
   98.1198   98.4274  -26.4616 O   0  0  0  0  0  0  0  0  0  0  0  0
   99.9599   99.6291  -27.5347 O   0  0  0  0  0  0  0  0  0  0  0  0
   98.1861   98.4676  -29.1240 C   0  0  0  0  0  0  0  0  0  0  0  0
   98.2738   99.5320  -29.9261 C   0  0  0  0  0  0  0  0  0  0  0  0
   97.6216   99.6214  -31.2547 C   0  0  0  0  0  0  0  0  0  0  0  0
   96.3309   99.0868  -31.4074 C   0  0  0  0  0  0  0  0  0  0  0  0
   95.6647   99.1772  -32.6332 C   0  0  0  0  0  0  0  0  0  0  0  0
   96.2746   99.8124  -33.7167 C   0  0  0  0  0  0  0  0  0  0  0  0
   97.5502  100.3623  -33.5751 C   0  0  0  0  0  0  0  0  0  0  0  0
   98.2226  100.2725  -32.3525 C   0  0  0  0  0  0  0  0  0  0  0  0
  5  6  1  0  0  0
  6  7  2  0  0  0
  7  8  1  0  0  0
  8  9  2  0  0  0
  9  1  1  0  0  0
  1  2  2  0  0  0
  1  3  1  0  0  0
  3 13  1  0  0  0
 13 14  2  0  0  0
 13 15  2  0  0  0
 13 16  1  0  0  0
 16 17  2  0  0  0
 17 18  1  0  0  0
 18 19  2  0  0  0
 19 20  1  0  0  0
 20 21  2  0  0  0
 21 22  1  0  0  0
 22 23  2  0  0  0
  9 10  1  0  0  0
 10 11  1  0  0  0
 10 12  2  0  0  0
 12  6  1  0  0  0
 23 18  1  0  0  0
  3  4  1  0  0  0
M  END
> <minimizedAffinity>
-5.17076

> <newdefault_CNNaffinity>
4.40957

> <newdefault_CNNscore>
0.237729

> <CNNaffinity_times_score>
1.0482827

> <protein>
4agq

$$$$
144213891


 22 23  0  0  0  0  0  0  0  0999 V2000
   90.8246   97.5976  -44.0712 C   0  0  0  0  0  0  0  0  0  0  0  0
   89.6894   98.1390  -43.9912 O   0  0  0  0  0  0  0  0  0  0  0  0
   91.8249   98.1600  -44.9310 N   0  0  0  0  0  0  0  0  0  0  0  0
   92.7249   97.7612  -44.9408 H   0  0  0  0  0  0  0  0  0  0  0  0
   91.9129   93.0652  -40.8823 F   0  0  0  0  0  0  0  0  0  0  0  0
   91.6557   94.1483  -41.6563 C   0  0  0  0  0  0  0  0  0  0  0  0
   91.5885   95.4174  -41.0803 C   0  0  0  0  0  0  0  0  0  0  0  0
   91.3246   96.5349  -41.8756 C   0  0  0  0  0  0  0  0  0  0  0  0
   91.1224   96.3960  -43.2607 C   0  0  0  0  0  0  0  0  0  0  0  0
   91.1970   95.1070  -43.8394 C   0  0  0  0  0  0  0  0  0  0  0  0
   91.0220   94.8112  -45.7287 Br  0  0  0  0  0  0  0  0  0  0  0  0
   91.4627   93.9947  -43.0307 C   0  0  0  0  0  0  0  0  0  0  0  0
   91.4976   99.5202  -45.9532 S   0  0  0  0  0  0  0  0  0  0  0  0
   92.3561   99.4596  -47.1860 O   0  0  0  0  0  0  0  0  0  0  0  0
   90.0565   99.4812  -46.3764 O   0  0  0  0  0  0  0  0  0  0  0  0
   91.7889  101.0111  -45.0716 C   0  0  0  0  0  0  0  0  0  0  0  0
   92.3154  100.9912  -43.8451 C   0  0  0  0  0  0  0  0  0  0  0  0
   92.5556  102.2080  -43.0488 C   0  0  0  0  0  0  0  0  0  0  0  0
   93.6414  103.0795  -43.1191 C   0  0  0  0  0  0  0  0  0  0  0  0
   93.5523  104.1469  -42.2169 C   0  0  0  0  0  0  0  0  0  0  0  0
   92.4050  104.1251  -41.4357 C   0  0  0  0  0  0  0  0  0  0  0  0
   91.5014  102.7760  -41.8689 S   0  0  0  0  0  0  0  0  0  0  0  0
  5  6  1  0  0  0
  6  7  2  0  0  0
  7  8  1  0  0  0
  8  9  2  0  0  0
  9  1  1  0  0  0
  1  2  2  0  0  0
  1  3  1  0  0  0
  3 13  1  0  0  0
 13 14  2  0  0  0
 13 15  2  0  0  0
 13 16  1  0  0  0
 16 17  2  0  0  0
 17 18  1  0  0  0
 18 19  2  0  0  0
 19 20  1  0  0  0
 20 21  2  0  0  0
 21 22  1  0  0  0
  9 10  1  0  0  0
 10 11  1  0  0  0
 10 12  2  0  0  0
 12  6  1  0  0  0
 22 18  1  0  0  0
  3  4  1  0  0  0
M  END
> <minimizedAffinity>
-5.67075

> <newdefault_CNNaffinity>
4.52389

> <newdefault_CNNscore>
0.440991

> <CNNaffinity_times_score>
1.9949949

> <protein>
4ago

$$$$
144214026


 11 13  0  0  0  0  0  0  0  0999 V2000
  101.5537   97.5770  -29.6545 S   0  0  0  0  0  0  0  0  0  0  0  0
  102.1737   95.9611  -29.4273 P   0  0  0  0  0  0  0  0  0  0  0  0
  102.9842   95.2831  -30.8649 N   0  0  0  0  0  0  0  0  0  0  0  0
  103.1347   96.2823  -31.9465 C   0  0  0  0  0  0  0  0  0  0  0  0
  104.3020   95.8921  -31.1554 C   0  0  0  0  0  0  0  0  0  0  0  0
  100.7624   94.9258  -29.1355 N   0  0  0  0  0  0  0  0  0  0  0  0
  100.8398   93.6552  -29.8900 C   0  0  0  0  0  0  0  0  0  0  0  0
   99.9806   94.7316  -30.3768 C   0  0  0  0  0  0  0  0  0  0  0  0
  103.3559   95.8178  -28.0926 N   0  0  0  0  0  0  0  0  0  0  0  0
  102.9212   96.3971  -26.7999 C   0  0  0  0  0  0  0  0  0  0  0  0
  103.8292   97.1522  -27.6597 C   0  0  0  0  0  0  0  0  0  0  0  0
  1  2  2  0  0  0
  2  3  1  0  0  0
  3  4  1  0  0  0
  4  5  1  0  0  0
  2  6  1  0  0  0
  6  7  1  0  0  0
  7  8  1  0  0  0
  2  9  1  0  0  0
  9 10  1  0  0  0
 10 11  1  0  0  0
  5  3  1  0  0  0
  8  6  1  0  0  0
 11  9  1  0  0  0
M  END
> <minimizedAffinity>
-3.48407

> <newdefault_CNNaffinity>
3.25222

> <newdefault_CNNscore>
0.665893

> <CNNaffinity_times_score>
2.1656306

> <protein>
4agq

$$$$
